/*---------------------------------------------------------------------------*\
| =========                 |                                                 |
| \\      /  F ield         | OpenFOAM: The Open Source CFD Toolbox           |
|  \\    /   O peration     | Version:  2112                                  |
|   \\  /    A nd           | Website:  www.openfoam.com                      |
|    \\/     M anipulation  |                                                 |
\*---------------------------------------------------------------------------*/
Build  : _d44c8318-20220111 OPENFOAM=2112 version=2112
Arch   : "LSB;label=32;scalar=64"
Exec   : surfaceFeatureExtract
Date   : Jun 22 2022
Time   : 18:05:08
Host   : b2961a4b1ec2
PID    : 483
I/O    : uncollated
Case   : /home/aimed_user/dexof_work/dir_rough_mesh_8cores_swordfish1_aoa_0
nProcs : 1
trapFpe: Floating point exception trapping enabled (FOAM_SIGFPE).
fileModificationChecking : Monitoring run-time modified files using timeStampMaster (fileModificationSkew 5, maxFileModificationPolls 20)
allowSystemOperations : Allowing user-supplied system call operations

// * * * * * * * * * * * * * * * * * * * * * * * * * * * * * * * * * * * * * //
Create time


Note: Feature line extraction only valid on closed manifold surfaces

Reading surfaceFeatureExtractDict

Surfaces     : UUV.stl
Output       : UUV
Load options : offset
Write options: writeObj=yes writeVTK=off

Statistics:
Triangles    : 25740 in 1 region(s)
Vertices     : 12872
Bounding Box : (-0.813254 -0.075000003 -0.074975997) (0.686746 0.075000003 0.074977003)

Constructing feature set from included angle 150
Selecting edges based purely on geometric tests: no

Initial Feature set:
    points : 27
    edges  : 313
    of which
        region edges   : 0
        external edges : 223
        internal edges : 90

Final Feature set:
    points : 334
    of which
        convex             : 0
        concave            : 10
        mixed              : 17
        non-feature        : 307
    edges  : 313
    of which
        external edges     : 223
        internal edges     : 90
        flat edges         : 0
        open edges         : 0
        multiply connected : 0

Writing extendedFeatureEdgeMesh to "/home/aimed_user/dexof_work/dir_rough_mesh_8cores_swordfish1_aoa_0/constant/extendedFeatureEdgeMesh/UUV.extendedFeatureEdgeMesh"

Writing extendedEdgeMesh components to "/home/aimed_user/dexof_work/dir_rough_mesh_8cores_swordfish1_aoa_0/constant/extendedFeatureEdgeMesh/UUV"
Writing 0 convex feature points to "/home/aimed_user/dexof_work/dir_rough_mesh_8cores_swordfish1_aoa_0/constant/extendedFeatureEdgeMesh/UUV_convexFeaturePts.obj"
Writing 10 concave feature points to "/home/aimed_user/dexof_work/dir_rough_mesh_8cores_swordfish1_aoa_0/constant/extendedFeatureEdgeMesh/UUV_concaveFeaturePts.obj"
Writing 17 mixed feature points to "/home/aimed_user/dexof_work/dir_rough_mesh_8cores_swordfish1_aoa_0/constant/extendedFeatureEdgeMesh/UUV_mixedFeaturePts.obj"
Writing 17 mixed feature point structure to "/home/aimed_user/dexof_work/dir_rough_mesh_8cores_swordfish1_aoa_0/constant/extendedFeatureEdgeMesh/UUV_mixedFeaturePtsStructure.obj"
Writing 223 external edges to "/home/aimed_user/dexof_work/dir_rough_mesh_8cores_swordfish1_aoa_0/constant/extendedFeatureEdgeMesh/UUV_externalEdges.obj"
Writing 90 internal edges to "/home/aimed_user/dexof_work/dir_rough_mesh_8cores_swordfish1_aoa_0/constant/extendedFeatureEdgeMesh/UUV_internalEdges.obj"
Writing 0 flat edges to "/home/aimed_user/dexof_work/dir_rough_mesh_8cores_swordfish1_aoa_0/constant/extendedFeatureEdgeMesh/UUV_flatEdges.obj"
Writing 0 open edges to "/home/aimed_user/dexof_work/dir_rough_mesh_8cores_swordfish1_aoa_0/constant/extendedFeatureEdgeMesh/UUV_openEdges.obj"
Writing 0 multiple edges to "/home/aimed_user/dexof_work/dir_rough_mesh_8cores_swordfish1_aoa_0/constant/extendedFeatureEdgeMesh/UUV_multipleEdges.obj"
Writing 0 region edges to "/home/aimed_user/dexof_work/dir_rough_mesh_8cores_swordfish1_aoa_0/constant/extendedFeatureEdgeMesh/UUV_regionEdges.obj"
Writing 313 edge directions to "/home/aimed_user/dexof_work/dir_rough_mesh_8cores_swordfish1_aoa_0/constant/extendedFeatureEdgeMesh/UUV_edgeDirections.obj"

Writing featureEdgeMesh to "/home/aimed_user/dexof_work/dir_rough_mesh_8cores_swordfish1_aoa_0/constant/triSurface/UUV.eMesh"
ExecutionTime = 0.09 s  ClockTime = 0 s

End

