/*---------------------------------------------------------------------------*\
| =========                 |                                                 |
| \\      /  F ield         | OpenFOAM: The Open Source CFD Toolbox           |
|  \\    /   O peration     | Version:  2112                                  |
|   \\  /    A nd           | Website:  www.openfoam.com                      |
|    \\/     M anipulation  |                                                 |
\*---------------------------------------------------------------------------*/
Build  : _d44c8318-20220111 OPENFOAM=2112 version=2112
Arch   : "LSB;label=32;scalar=64"
Exec   : simpleFoam -parallel -decomposeParDict system/decomposeParDict.6
Date   : Jun 22 2022
Time   : 18:05:22
Host   : b2961a4b1ec2
PID    : 544
I/O    : uncollated
Case   : /home/aimed_user/dexof_work/dir_rough_mesh_8cores_swordfish1_aoa_0
nProcs : 8
Hosts  :
(
    (b2961a4b1ec2 8)
)
Pstream initialized with:
    floatTransfer      : 0
    nProcsSimpleSum    : 0
    commsType          : nonBlocking
    polling iterations : 0
trapFpe: Floating point exception trapping enabled (FOAM_SIGFPE).
fileModificationChecking : Monitoring run-time modified files using timeStampMaster (fileModificationSkew 5, maxFileModificationPolls 20)
allowSystemOperations : Allowing user-supplied system call operations

// * * * * * * * * * * * * * * * * * * * * * * * * * * * * * * * * * * * * * //
Create time

Create mesh for time = 0


SIMPLE: convergence criteria
    field p	 tolerance 0.0001
    field U	 tolerance 0.0001
    field "(k|epsilon|omega|f|v2|nuTilda)"	 tolerance 0.0001

Reading field p

Reading field U

Reading/calculating face flux field phi

Selecting incompressible transport model Newtonian
Selecting turbulence model type RAS
Selecting RAS turbulence model kOmegaSST
Selecting patchDistMethod meshWave
RAS
{
    RASModel        kOmegaSST;
    turbulence      on;
    printCoeffs     on;
    alphaK1         0.85;
    alphaK2         1;
    alphaOmega1     0.5;
    alphaOmega2     0.856;
    gamma1          0.55555556;
    gamma2          0.44;
    beta1           0.075;
    beta2           0.0828;
    betaStar        0.09;
    a1              0.31;
    b1              1;
    c1              10;
    F3              false;
    decayControl    false;
    kInf            0;
    omegaInf        0;
}

No MRF models present

No finite volume options present

Starting time loop

forceCoeffs forceCoeffs_cl:
    p: p
    U: U
    rho: rhoInf
    Freestream density (rhoInf) set to 1027
    Not including porosity effects
    Fields will be written

forceCoeffs forceCoeffs_cd:
    p: p
    U: U
    rho: rhoInf
    Freestream density (rhoInf) set to 1027
    Not including porosity effects

forces force_computation:
    p: p
    U: U
    rho: rhoInf
    Freestream density (rhoInf) set to 1027
    Not including porosity effects

Time = 1

smoothSolver:  Solving for Ux, Initial residual = 1, Final residual = 0.053653231, No Iterations 2
smoothSolver:  Solving for Uy, Initial residual = 1, Final residual = 0.038590321, No Iterations 3
smoothSolver:  Solving for Uz, Initial residual = 1, Final residual = 0.039951102, No Iterations 3
GAMG:  Solving for p, Initial residual = 1, Final residual = 0.0072779145, No Iterations 7
GAMG:  Solving for p, Initial residual = 0.0024895472, Final residual = 1.0329997e-05, No Iterations 3
GAMG:  Solving for p, Initial residual = 0.00029041895, Final residual = 2.4686498e-06, No Iterations 3
GAMG:  Solving for p, Initial residual = 5.6527612e-05, Final residual = 5.4011992e-07, No Iterations 3
GAMG:  Solving for p, Initial residual = 1.442657e-05, Final residual = 1.3818358e-07, No Iterations 3
GAMG:  Solving for p, Initial residual = 3.9248094e-06, Final residual = 7.3159497e-08, No Iterations 2
time step continuity errors : sum local = 4.775288e-07, global = 1.7572963e-07, cumulative = 1.7572963e-07
smoothSolver:  Solving for omega, Initial residual = 0.088837258, Final residual = 0.0032641042, No Iterations 2
smoothSolver:  Solving for k, Initial residual = 1, Final residual = 0.040398982, No Iterations 2
ExecutionTime = 0.38 s  ClockTime = 0 s

forceCoeffs forceCoeffs_cl execute:
    Coefficients
        Cd       : 0.8284886	(pressure: 0.81644056	viscous: 0.012048041)
        Cs       : 0.0011804966	(pressure: 0.0011803772	viscous: 1.194326e-07)
        Cl       : -0.00012984237	(pressure: -0.00012988306	viscous: 4.0681645e-08)
        CmRoll       : 1.1029077e-08	(pressure: 1.1117827e-08	viscous: -8.8750601e-11)
        CmPitch       : -9.0106651e-05	(pressure: -9.0064833e-05	viscous: -4.1818264e-08)
        CmYaw       : -0.00042679058	(pressure: -0.00042675895	viscous: -3.1632279e-08)
        Cd(f)    : 0.41424431
        Cd(r)    : 0.41424429
        Cs(f)    : 0.00016345773
        Cs(r)    : 0.0010170389
        Cl(f)    : -0.00015502784
        Cl(r)    : 2.5185464e-05
forceCoeffs forceCoeffs_cd execute:
    Coefficients
        Cd       : 9.6901714	(pressure: 9.5492551	viscous: 0.14091634)
        Cs       : 0.013807329	(pressure: 0.013805932	viscous: 1.3969081e-06)
        Cl       : -0.0015186629	(pressure: -0.0015191387	viscous: 4.7582081e-07)
        CmRoll       : 1.2899833e-07	(pressure: 1.3003637e-07	viscous: -1.0380451e-09)
        CmPitch       : -0.0010539057	(pressure: -0.0010534166	viscous: -4.8911493e-07)
        CmYaw       : -0.0049918296	(pressure: -0.0049914596	viscous: -3.6997758e-07)
        Cd(f)    : 4.8450858
        Cd(r)    : 4.8450856
        Cs(f)    : 0.0019118349
        Cs(r)    : 0.011895494
        Cl(f)    : -0.0018132372
        Cl(r)    : 0.00029457432
forces force_computation write:
    Sum of forces
        Total    : (351.58073 -0.055100429 -0.50096026)
        Pressure : (346.46798 -0.055117693 -0.50090958)
        Viscous  : (5.1127548 1.7263825e-05 -5.0682897e-05)
    Sum of moments
        Total    : (7.0205145e-06 -0.27167183 0.057357028)
        Pressure : (7.0770084e-06 -0.2716517 0.057330409)
        Viscous  : (-5.6493839e-08 -2.01354e-05 2.6619248e-05)


Time = 2

smoothSolver:  Solving for Ux, Initial residual = 0.20582193, Final residual = 0.0088665116, No Iterations 2
smoothSolver:  Solving for Uy, Initial residual = 0.54808415, Final residual = 0.022988252, No Iterations 2
smoothSolver:  Solving for Uz, Initial residual = 0.54905579, Final residual = 0.023085732, No Iterations 2
GAMG:  Solving for p, Initial residual = 0.0095779643, Final residual = 8.5471546e-05, No Iterations 4
GAMG:  Solving for p, Initial residual = 0.0016875852, Final residual = 1.1512918e-05, No Iterations 3
GAMG:  Solving for p, Initial residual = 0.00023642984, Final residual = 2.0279702e-06, No Iterations 3
GAMG:  Solving for p, Initial residual = 4.6733254e-05, Final residual = 3.7489517e-07, No Iterations 3
GAMG:  Solving for p, Initial residual = 1.1768574e-05, Final residual = 9.1014886e-08, No Iterations 3
GAMG:  Solving for p, Initial residual = 3.2288261e-06, Final residual = 5.1795669e-08, No Iterations 2
time step continuity errors : sum local = 1.1650118e-07, global = -3.201146e-08, cumulative = 1.4371817e-07
smoothSolver:  Solving for omega, Initial residual = 0.050754772, Final residual = 0.0022758441, No Iterations 2
smoothSolver:  Solving for k, Initial residual = 0.28506094, Final residual = 0.013400157, No Iterations 2
ExecutionTime = 0.62 s  ClockTime = 0 s

forceCoeffs forceCoeffs_cl execute:
    Coefficients
        Cd       : 0.7425781	(pressure: 0.7303946	viscous: 0.012183499)
        Cs       : 0.0011430897	(pressure: 0.0011429497	viscous: 1.40001e-07)
        Cl       : -0.00026376232	(pressure: -0.00026368217	viscous: -8.0151741e-08)
        CmRoll       : 8.321477e-09	(pressure: 8.5299286e-09	viscous: -2.0845162e-10)
        CmPitch       : -0.00013526618	(pressure: -0.00013509298	viscous: -1.7319515e-07)
        CmYaw       : -0.00040728106	(pressure: -0.00040722526	viscous: -5.5792367e-08)
        Cd(f)    : 0.37128906
        Cd(r)    : 0.37128904
        Cs(f)    : 0.00016426382
        Cs(r)    : 0.00097882593
        Cl(f)    : -0.00026714734
        Cl(r)    : 3.3850174e-06
forceCoeffs forceCoeffs_cd execute:
    Coefficients
        Cd       : 8.6853448	(pressure: 8.5428441	viscous: 0.14250069)
        Cs       : 0.01336981	(pressure: 0.013368173	viscous: 1.6374802e-06)
        Cl       : -0.0030850178	(pressure: -0.0030840804	viscous: -9.3747109e-07)
        CmRoll       : 9.732969e-08	(pressure: 9.9767782e-08	viscous: -2.4380926e-09)
        CmPitch       : -0.0015821008	(pressure: -0.0015800751	viscous: -2.0257258e-06)
        CmYaw       : -0.0047636422	(pressure: -0.0047629896	viscous: -6.5255889e-07)
        Cd(f)    : 4.3426725
        Cd(r)    : 4.3426723
        Cs(f)    : 0.001921263
        Cs(r)    : 0.011448547
        Cl(f)    : -0.0031246097
        Cl(r)    : 3.9591854e-05
forces force_computation write:
    Sum of forces
        Total    : (315.12341 -0.11193123 -0.48508613)
        Pressure : (309.95317 -0.11189722 -0.48502672)
        Viscous  : (5.1702384 -3.4013513e-05 -5.9411383e-05)
    Sum of moments
        Total    : (5.2970028e-06 -0.25925312 0.086103144)
        Pressure : (5.4296919e-06 -0.25921761 0.085992897)
        Viscous  : (-1.3268904e-07 -3.5514408e-05 0.00011024668)


Time = 3

smoothSolver:  Solving for Ux, Initial residual = 0.050600177, Final residual = 0.0021630278, No Iterations 2
smoothSolver:  Solving for Uy, Initial residual = 0.26227742, Final residual = 0.010963876, No Iterations 2
smoothSolver:  Solving for Uz, Initial residual = 0.2626533, Final residual = 0.010995938, No Iterations 2
GAMG:  Solving for p, Initial residual = 0.017149745, Final residual = 0.00012844453, No Iterations 5
GAMG:  Solving for p, Initial residual = 0.0096590618, Final residual = 5.1808628e-05, No Iterations 3
GAMG:  Solving for p, Initial residual = 0.0011618824, Final residual = 1.1117478e-05, No Iterations 3
GAMG:  Solving for p, Initial residual = 0.00023918434, Final residual = 2.1808144e-06, No Iterations 3
GAMG:  Solving for p, Initial residual = 6.2362602e-05, Final residual = 5.6593166e-07, No Iterations 3
GAMG:  Solving for p, Initial residual = 1.6784364e-05, Final residual = 1.4972221e-07, No Iterations 3
time step continuity errors : sum local = 2.233591e-07, global = -5.6743528e-08, cumulative = 8.6974638e-08
smoothSolver:  Solving for omega, Initial residual = 0.031758173, Final residual = 0.0016537367, No Iterations 2
smoothSolver:  Solving for k, Initial residual = 0.14376825, Final residual = 0.0075790969, No Iterations 2
ExecutionTime = 0.86 s  ClockTime = 1 s

forceCoeffs forceCoeffs_cl execute:
    Coefficients
        Cd       : 0.20996073	(pressure: 0.19781505	viscous: 0.012145678)
        Cs       : 0.00032455206	(pressure: 0.00032436226	viscous: 1.898056e-07)
        Cl       : -0.00020533476	(pressure: -0.00020522375	viscous: -1.1100767e-07)
        CmRoll       : -3.6032953e-09	(pressure: -3.1902871e-09	viscous: -4.1300828e-10)
        CmPitch       : -9.0423288e-05	(pressure: -9.0113061e-05	viscous: -3.1022669e-07)
        CmYaw       : -9.8534643e-05	(pressure: -9.8421828e-05	viscous: -1.1281468e-07)
        Cd(f)    : 0.10498036
        Cd(r)    : 0.10498037
        Cs(f)    : 6.3741388e-05
        Cs(r)    : 0.00026081067
        Cl(f)    : -0.00019309067
        Cl(r)    : -1.2244092e-05
forceCoeffs forceCoeffs_cd execute:
    Coefficients
        Cd       : 2.4557434	(pressure: 2.3136851	viscous: 0.14205832)
        Cs       : 0.003796027	(pressure: 0.003793807	viscous: 2.220005e-06)
        Cl       : -0.0024016372	(pressure: -0.0024003388	viscous: -1.2983683e-06)
        CmRoll       : -4.2144876e-08	(pressure: -3.7314247e-08	viscous: -4.830629e-09)
        CmPitch       : -0.0010576092	(pressure: -0.0010539807	viscous: -3.6284745e-06)
        CmYaw       : -0.0011524813	(pressure: -0.0011511618	viscous: -1.3195035e-06)
        Cd(f)    : 1.2278717
        Cd(r)    : 1.2278718
        Cs(f)    : 0.00074553226
        Cs(r)    : 0.0030504948
        Cl(f)    : -0.0022584278
        Cl(r)    : -0.00014320939
forces force_computation write:
    Sum of forces
        Total    : (89.099772 -0.087136679 -0.13772821)
        Pressure : (83.945584 -0.087089572 -0.13764766)
        Viscous  : (5.1541884 -4.7107659e-05 -8.0546662e-05)
    Sum of moments
        Total    : (-2.2936632e-06 -0.062721832 0.057558582)
        Pressure : (-2.0307644e-06 -0.06265002 0.057361108)
        Viscous  : (-2.6289877e-07 -7.1811736e-05 0.00019747355)


Time = 4

smoothSolver:  Solving for Ux, Initial residual = 0.011085292, Final residual = 0.00045219331, No Iterations 2
smoothSolver:  Solving for Uy, Initial residual = 0.063045251, Final residual = 0.0023871924, No Iterations 2
smoothSolver:  Solving for Uz, Initial residual = 0.062917734, Final residual = 0.002373325, No Iterations 2
GAMG:  Solving for p, Initial residual = 0.026525228, Final residual = 0.00023740987, No Iterations 5
GAMG:  Solving for p, Initial residual = 0.005039483, Final residual = 2.7534114e-05, No Iterations 3
GAMG:  Solving for p, Initial residual = 0.00067088692, Final residual = 6.2844969e-06, No Iterations 3
GAMG:  Solving for p, Initial residual = 0.0001390539, Final residual = 1.2646093e-06, No Iterations 3
GAMG:  Solving for p, Initial residual = 3.6836542e-05, Final residual = 3.1963379e-07, No Iterations 3
GAMG:  Solving for p, Initial residual = 9.939165e-06, Final residual = 7.9714462e-08, No Iterations 3
time step continuity errors : sum local = 1.9643041e-07, global = -5.0854747e-08, cumulative = 3.6119891e-08
smoothSolver:  Solving for omega, Initial residual = 0.020657488, Final residual = 0.0011940682, No Iterations 2
smoothSolver:  Solving for k, Initial residual = 0.088312353, Final residual = 0.0050921399, No Iterations 2
ExecutionTime = 1.1 s  ClockTime = 1 s

forceCoeffs forceCoeffs_cl execute:
    Coefficients
        Cd       : -0.26666253	(pressure: -0.2789515	viscous: 0.012288973)
        Cs       : -0.00045026957	(pressure: -0.00045046763	viscous: 1.9806312e-07)
        Cl       : -1.9511525e-05	(pressure: -1.930569e-05	viscous: -2.0583477e-07)
        CmRoll       : -1.7619641e-08	(pressure: -1.7615774e-08	viscous: -3.867326e-12)
        CmPitch       : 4.9289396e-06	(pressure: 5.1897181e-06	viscous: -2.6077843e-07)
        CmYaw       : 0.00018488163	(pressure: 0.00018509546	viscous: -2.1383706e-07)
        Cd(f)    : -0.13333128
        Cd(r)    : -0.13333125
        Cs(f)    : -4.025316e-05
        Cs(r)    : -0.00041001641
        Cl(f)    : -4.8268228e-06
        Cl(r)    : -1.4684702e-05
forceCoeffs forceCoeffs_cd execute:
    Coefficients
        Cd       : -3.1189393	(pressure: -3.2626736	viscous: 0.14373433)
        Cs       : -0.0052664446	(pressure: -0.0052687612	viscous: 2.3165867e-06)
        Cl       : -0.00022821077	(pressure: -0.00022580328	viscous: -2.4074854e-06)
        CmRoll       : -2.0608292e-07	(pressure: -2.0603768e-07	viscous: -4.5233033e-11)
        CmPitch       : 5.7649882e-05	(pressure: 6.07e-05	viscous: -3.0501177e-06)
        CmYaw       : 0.0021624132	(pressure: 0.0021649142	viscous: -2.5010818e-06)
        Cd(f)    : -1.5594699
        Cd(r)    : -1.5594694
        Cs(f)    : -0.00047080916
        Cs(r)    : -0.0047956355
        Cl(f)    : -5.6455503e-05
        Cl(r)    : -0.00017175527
forces force_computation write:
    Sum of forces
        Total    : (-113.16198 -0.0082799887 0.19107819)
        Pressure : (-118.37698 -0.0081926398 0.19116225)
        Viscous  : (5.2149976 -8.7348865e-05 -8.4050859e-05)
    Sum of moments
        Total    : (-1.1215712e-05 0.11768566 -0.0031374968)
        Pressure : (-1.121325e-05 0.11782178 -0.0033034942)
        Viscous  : (-2.4617309e-09 -0.00013611712 0.00016599747)


Time = 5

smoothSolver:  Solving for Ux, Initial residual = 0.013560397, Final residual = 0.00049776166, No Iterations 2
smoothSolver:  Solving for Uy, Initial residual = 0.1460758, Final residual = 0.0060499129, No Iterations 2
smoothSolver:  Solving for Uz, Initial residual = 0.14365403, Final residual = 0.005940133, No Iterations 2
GAMG:  Solving for p, Initial residual = 0.31207098, Final residual = 0.0012708958, No Iterations 5
GAMG:  Solving for p, Initial residual = 0.0029415622, Final residual = 2.8258785e-05, No Iterations 2
GAMG:  Solving for p, Initial residual = 0.00037491076, Final residual = 1.5759041e-06, No Iterations 4
GAMG:  Solving for p, Initial residual = 7.9460312e-05, Final residual = 4.2020028e-07, No Iterations 3
GAMG:  Solving for p, Initial residual = 1.786572e-05, Final residual = 1.3326273e-07, No Iterations 3
GAMG:  Solving for p, Initial residual = 4.6525896e-06, Final residual = 7.2822279e-08, No Iterations 2
time step continuity errors : sum local = 1.0811285e-07, global = -3.6834083e-08, cumulative = -7.1419237e-10
smoothSolver:  Solving for omega, Initial residual = 0.014590104, Final residual = 0.00091608994, No Iterations 2
smoothSolver:  Solving for k, Initial residual = 0.061289966, Final residual = 0.0038023638, No Iterations 2
ExecutionTime = 1.34 s  ClockTime = 1 s

forceCoeffs forceCoeffs_cl execute:
    Coefficients
        Cd       : -0.40302562	(pressure: -0.41561209	viscous: 0.012586472)
        Cs       : -0.00064554128	(pressure: -0.00064566764	viscous: 1.2636411e-07)
        Cl       : 0.00021003376	(pressure: 0.00021077661	viscous: -7.4285049e-07)
        CmRoll       : -1.170937e-08	(pressure: -1.2845595e-08	viscous: 1.1362251e-09)
        CmPitch       : 9.6614474e-05	(pressure: 9.6501268e-05	viscous: 1.1320521e-07)
        CmYaw       : 0.00022305289	(pressure: 0.00022337186	viscous: -3.1896933e-07)
        Cd(f)    : -0.20151282
        Cd(r)    : -0.2015128
        Cs(f)    : -9.9717752e-05
        Cs(r)    : -0.00054582352
        Cl(f)    : 0.00020163135
        Cl(r)    : 8.4024067e-06
forceCoeffs forceCoeffs_cd execute:
    Coefficients
        Cd       : -4.7138697	(pressure: -4.8610837	viscous: 0.14721394)
        Cs       : -0.0075503823	(pressure: -0.0075518603	viscous: 1.4779804e-06)
        Cl       : 0.0024565977	(pressure: 0.0024652862	viscous: -8.6885307e-06)
        CmRoll       : -1.3695517e-07	(pressure: -1.5024469e-07	viscous: 1.328952e-08)
        CmPitch       : 0.0011300226	(pressure: 0.0011286985	viscous: 1.3240712e-06)
        CmYaw       : 0.002608872	(pressure: 0.0026126027	viscous: -3.7307303e-06)
        Cd(f)    : -2.356935
        Cd(r)    : -2.3569347
        Cs(f)    : -0.0011663191
        Cs(r)    : -0.0063840631
        Cl(f)    : 0.0023583214
        Cl(r)    : 9.8276261e-05
forces force_computation write:
    Sum of forces
        Total    : (-171.02956 0.089130766 0.27394448)
        Pressure : (-176.37081 0.089446005 0.2739981)
        Viscous  : (5.3412456 -0.000315239 -5.3624378e-05)
    Sum of moments
        Total    : (-7.4535524e-06 0.14198342 -0.061499556)
        Pressure : (-8.1768119e-06 0.14218646 -0.061427496)
        Viscous  : (7.2325951e-07 -0.00020303865 -7.2060323e-05)


Time = 6

smoothSolver:  Solving for Ux, Initial residual = 0.022634783, Final residual = 0.00087848455, No Iterations 2
smoothSolver:  Solving for Uy, Initial residual = 0.24674838, Final residual = 0.010344647, No Iterations 2
smoothSolver:  Solving for Uz, Initial residual = 0.24749223, Final residual = 0.010387464, No Iterations 2
GAMG:  Solving for p, Initial residual = 0.056304849, Final residual = 0.00027293613, No Iterations 5
GAMG:  Solving for p, Initial residual = 0.023584633, Final residual = 0.00012450988, No Iterations 3
GAMG:  Solving for p, Initial residual = 0.0025983417, Final residual = 2.4414716e-05, No Iterations 3
GAMG:  Solving for p, Initial residual = 0.00050217164, Final residual = 4.3185082e-06, No Iterations 3
GAMG:  Solving for p, Initial residual = 0.00012391838, Final residual = 1.0417173e-06, No Iterations 3
GAMG:  Solving for p, Initial residual = 3.2784432e-05, Final residual = 2.5933096e-07, No Iterations 3
time step continuity errors : sum local = 9.0680053e-08, global = 2.1587305e-08, cumulative = 2.0873113e-08
smoothSolver:  Solving for omega, Initial residual = 0.010847598, Final residual = 0.00072861028, No Iterations 2
smoothSolver:  Solving for k, Initial residual = 0.045612995, Final residual = 0.0030073308, No Iterations 2
ExecutionTime = 1.59 s  ClockTime = 1 s

forceCoeffs forceCoeffs_cl execute:
    Coefficients
        Cd       : -0.20036122	(pressure: -0.21337663	viscous: 0.013015413)
        Cs       : -0.00028295548	(pressure: -0.00028339358	viscous: 4.3809136e-07)
        Cl       : 0.00028275299	(pressure: 0.00028330651	viscous: -5.5352031e-07)
        CmRoll       : -3.0570828e-09	(pressure: -5.6713121e-09	viscous: 2.6142293e-09)
        CmPitch       : 0.00011317764	(pressure: 0.00011306612	viscous: 1.1152181e-07)
        CmYaw       : 6.355719e-05	(pressure: 6.3785123e-05	viscous: -2.2793337e-07)
        Cd(f)    : -0.10018061
        Cd(r)    : -0.1001806
        Cs(f)    : -7.7920553e-05
        Cs(r)    : -0.00020503493
        Cl(f)    : 0.00025455414
        Cl(r)    : 2.819885e-05
forceCoeffs forceCoeffs_cd execute:
    Coefficients
        Cd       : -2.3434656	(pressure: -2.4956965	viscous: 0.15223092)
        Cs       : -0.003309505	(pressure: -0.003314629	viscous: 5.1240058e-06)
        Cl       : 0.0033071365	(pressure: 0.0033136106	viscous: -6.4740864e-06)
        CmRoll       : -3.5756263e-08	(pressure: -6.6332822e-08	viscous: 3.0576559e-08)
        CmPitch       : 0.0013237488	(pressure: 0.0013224444	viscous: 1.3043818e-06)
        CmYaw       : 0.00074337784	(pressure: 0.00074604379	viscous: -2.6659552e-06)
        Cd(f)    : -1.1717328
        Cd(r)    : -1.1717328
        Cs(f)    : -0.00091137466
        Cs(r)    : -0.0023981303
        Cl(f)    : 0.002977317
        Cl(r)    : 0.0003298195
forces force_computation write:
    Sum of forces
        Total    : (-85.026086 0.11999019 0.12007612)
        Pressure : (-90.549359 0.12022508 0.12026203)
        Viscous  : (5.5232726 -0.00023489409 -0.0001859102)
    Sum of moments
        Total    : (-1.9459738e-06 0.040457075 -0.072042775)
        Pressure : (-3.610051e-06 0.040602165 -0.071971786)
        Viscous  : (1.6640772e-06 -0.00014509007 -7.0988759e-05)


Time = 7

smoothSolver:  Solving for Ux, Initial residual = 0.018683172, Final residual = 0.00070963983, No Iterations 2
smoothSolver:  Solving for Uy, Initial residual = 0.14295593, Final residual = 0.0056641942, No Iterations 2
smoothSolver:  Solving for Uz, Initial residual = 0.14815165, Final residual = 0.0059198231, No Iterations 2
GAMG:  Solving for p, Initial residual = 0.11237143, Final residual = 0.00062441156, No Iterations 5
GAMG:  Solving for p, Initial residual = 0.0061297377, Final residual = 3.3467351e-05, No Iterations 3
GAMG:  Solving for p, Initial residual = 0.00077361988, Final residual = 7.6083325e-06, No Iterations 3
GAMG:  Solving for p, Initial residual = 0.00016462038, Final residual = 1.412927e-06, No Iterations 3
GAMG:  Solving for p, Initial residual = 4.3130834e-05, Final residual = 3.5997133e-07, No Iterations 3
GAMG:  Solving for p, Initial residual = 1.1989171e-05, Final residual = 8.7724414e-08, No Iterations 3
time step continuity errors : sum local = 1.1908294e-07, global = 2.7169148e-08, cumulative = 4.8042261e-08
smoothSolver:  Solving for omega, Initial residual = 0.0081401267, Final residual = 0.00057479979, No Iterations 2
smoothSolver:  Solving for k, Initial residual = 0.035226393, Final residual = 0.0024383282, No Iterations 2
ExecutionTime = 1.86 s  ClockTime = 2 s

forceCoeffs forceCoeffs_cl execute:
    Coefficients
        Cd       : 0.082001394	(pressure: 0.068495674	viscous: 0.01350572)
        Cs       : 0.0002487479	(pressure: 0.00024822683	viscous: 5.2106414e-07)
        Cl       : 8.5274482e-05	(pressure: 8.5627862e-05	viscous: -3.5338045e-07)
        CmRoll       : -1.9148955e-09	(pressure: -3.1627551e-09	viscous: 1.2478596e-09)
        CmPitch       : 7.7297112e-05	(pressure: 7.7155136e-05	viscous: 1.4197536e-07)
        CmYaw       : -0.00010462475	(pressure: -0.00010440583	viscous: -2.1892284e-07)
        Cd(f)    : 0.041000695
        Cd(r)    : 0.041000699
        Cs(f)    : 1.9749194e-05
        Cs(r)    : 0.0002289987
        Cl(f)    : 0.00011993435
        Cl(r)    : -3.4659871e-05
forceCoeffs forceCoeffs_cd execute:
    Coefficients
        Cd       : 0.95910502	(pressure: 0.80113936	viscous: 0.15796566)
        Cs       : 0.0029094061	(pressure: 0.0029033116	viscous: 6.0944723e-06)
        Cl       : 0.00099738771	(pressure: 0.0010015209	viscous: -4.1332098e-06)
        CmRoll       : -2.2397008e-08	(pressure: -3.6992228e-08	viscous: 1.459522e-08)
        CmPitch       : 0.00090408276	(pressure: 0.00090242219	viscous: 1.6605727e-06)
        CmYaw       : -0.0012237124	(pressure: -0.0012211519	viscous: -2.5605661e-06)
        Cd(f)    : 0.47955249
        Cd(r)    : 0.47955253
        Cs(f)    : 0.0002309906
        Cs(r)    : 0.0026784155
        Cl(f)    : 0.0014027766
        Cl(r)    : -0.00040538891
forces force_computation write:
    Sum of forces
        Total    : (34.798439 0.03618742 -0.10555965)
        Pressure : (29.067098 0.036337382 -0.10533853)
        Viscous  : (5.7313415 -0.00014996194 -0.00022112086)
    Sum of moments
        Total    : (-1.2189191e-06 -0.066598468 -0.049203167)
        Pressure : (-2.0132391e-06 -0.066459114 -0.049112793)
        Viscous  : (7.9432001e-07 -0.00013935446 -9.0373845e-05)


Time = 8

smoothSolver:  Solving for Ux, Initial residual = 0.015783919, Final residual = 0.00051846783, No Iterations 2
smoothSolver:  Solving for Uy, Initial residual = 0.11230771, Final residual = 0.0045675265, No Iterations 2
smoothSolver:  Solving for Uz, Initial residual = 0.11029653, Final residual = 0.0044788288, No Iterations 2
GAMG:  Solving for p, Initial residual = 0.070974651, Final residual = 0.0003815298, No Iterations 5
GAMG:  Solving for p, Initial residual = 0.0028388771, Final residual = 1.6292006e-05, No Iterations 3
GAMG:  Solving for p, Initial residual = 0.0003690514, Final residual = 1.588356e-06, No Iterations 4
GAMG:  Solving for p, Initial residual = 7.7012137e-05, Final residual = 5.0626902e-07, No Iterations 3
GAMG:  Solving for p, Initial residual = 1.9050183e-05, Final residual = 1.5432984e-07, No Iterations 3
GAMG:  Solving for p, Initial residual = 5.1518532e-06, Final residual = 8.0879603e-08, No Iterations 2
time step continuity errors : sum local = 1.166134e-07, global = 4.5134029e-08, cumulative = 9.317629e-08
smoothSolver:  Solving for omega, Initial residual = 0.0064158628, Final residual = 0.00047053509, No Iterations 2
smoothSolver:  Solving for k, Initial residual = 0.028084501, Final residual = 0.0020223962, No Iterations 2
ExecutionTime = 2.11 s  ClockTime = 2 s

forceCoeffs forceCoeffs_cl execute:
    Coefficients
        Cd       : 0.25042521	(pressure: 0.23663527	viscous: 0.013789948)
        Cs       : 0.00059795875	(pressure: 0.00059768464	viscous: 2.7410946e-07)
        Cl       : -0.000155327	(pressure: -0.00015553091	viscous: 2.0391872e-07)
        CmRoll       : -1.9288259e-09	(pressure: 4.7393042e-09	viscous: -6.6681301e-09)
        CmPitch       : -1.4231731e-05	(pressure: -1.4168014e-05	viscous: -6.3717374e-08)
        CmYaw       : -0.00010832294	(pressure: -0.00010797173	viscous: -3.5121542e-07)
        Cd(f)    : 0.1252126
        Cd(r)    : 0.12521261
        Cs(f)    : 0.00019065643
        Cs(r)    : 0.00040730232
        Cl(f)    : -9.1895229e-05
        Cl(r)    : -6.3431767e-05
forceCoeffs forceCoeffs_cd execute:
    Coefficients
        Cd       : 2.9290243	(pressure: 2.7677343	viscous: 0.16129004)
        Cs       : 0.0069938474	(pressure: 0.0069906413	viscous: 3.2060401e-06)
        Cl       : -0.0018167362	(pressure: -0.0018191213	viscous: 2.3850749e-06)
        CmRoll       : -2.255994e-08	(pressure: 5.5431868e-08	viscous: -7.7991808e-08)
        CmPitch       : -0.00016645723	(pressure: -0.00016571198	viscous: -7.4525138e-07)
        CmYaw       : -0.0012669672	(pressure: -0.0012628593	viscous: -4.1078871e-06)
        Cd(f)    : 1.4645121
        Cd(r)    : 1.4645122
        Cs(f)    : 0.0022299565
        Cs(r)    : 0.0047638909
        Cl(f)    : -0.0010748253
        Cl(r)    : -0.00074191086
forces force_computation write:
    Sum of forces
        Total    : (106.27144 -0.065915185 -0.25375217)
        Pressure : (100.41949 -0.06600172 -0.25363584)
        Viscous  : (5.8519574 8.6535762e-05 -0.00011632219)
    Sum of moments
        Total    : (-1.2277864e-06 -0.068952536 0.0090591515)
        Pressure : (3.0167851e-06 -0.068728972 0.0090185924)
        Viscous  : (-4.2445715e-06 -0.00022356477 4.0559039e-05)


Time = 9

smoothSolver:  Solving for Ux, Initial residual = 0.022199348, Final residual = 0.00083393, No Iterations 2
smoothSolver:  Solving for Uy, Initial residual = 0.14016419, Final residual = 0.0059296001, No Iterations 2
smoothSolver:  Solving for Uz, Initial residual = 0.14034942, Final residual = 0.005965628, No Iterations 2
GAMG:  Solving for p, Initial residual = 0.028873015, Final residual = 0.00023700542, No Iterations 4
GAMG:  Solving for p, Initial residual = 0.0032593931, Final residual = 2.2518621e-05, No Iterations 3
GAMG:  Solving for p, Initial residual = 0.00041302835, Final residual = 3.4062594e-06, No Iterations 3
GAMG:  Solving for p, Initial residual = 7.5085714e-05, Final residual = 6.1178269e-07, No Iterations 3
GAMG:  Solving for p, Initial residual = 1.8224951e-05, Final residual = 1.4874074e-07, No Iterations 3
GAMG:  Solving for p, Initial residual = 4.7629151e-06, Final residual = 8.4106622e-08, No Iterations 2
time step continuity errors : sum local = 7.4758186e-08, global = -2.1828647e-08, cumulative = 7.1347643e-08
smoothSolver:  Solving for omega, Initial residual = 0.0053308668, Final residual = 0.00040342381, No Iterations 2
smoothSolver:  Solving for k, Initial residual = 0.023146055, Final residual = 0.0017218364, No Iterations 2
ExecutionTime = 2.34 s  ClockTime = 2 s

forceCoeffs forceCoeffs_cl execute:
    Coefficients
        Cd       : 0.22789743	(pressure: 0.21400512	viscous: 0.013892308)
        Cs       : 0.0003554687	(pressure: 0.00035543836	viscous: 3.0341687e-08)
        Cl       : -0.0002360308	(pressure: -0.00023559522	viscous: -4.3557637e-07)
        CmRoll       : -9.3912701e-09	(pressure: 5.0296228e-09	viscous: -1.4420893e-08)
        CmPitch       : -9.3785994e-05	(pressure: -9.3936375e-05	viscous: 1.5038131e-07)
        CmYaw       : -5.6710624e-05	(pressure: -5.623691e-05	viscous: -4.7371437e-07)
        Cd(f)    : 0.11394871
        Cd(r)    : 0.11394873
        Cs(f)    : 0.00012102373
        Cs(r)    : 0.00023444498
        Cl(f)    : -0.00021180139
        Cl(r)    : -2.4229405e-05
forceCoeffs forceCoeffs_cd execute:
    Coefficients
        Cd       : 2.6655348	(pressure: 2.5030475	viscous: 0.16248727)
        Cs       : 0.0041576344	(pressure: 0.0041572795	viscous: 3.5488255e-07)
        Cl       : -0.0027606643	(pressure: -0.0027555697	viscous: -5.0945899e-06)
        CmRoll       : -1.0984221e-07	(pressure: 5.8827493e-08	viscous: -1.686697e-07)
        CmPitch       : -0.0010969401	(pressure: -0.001098699	viscous: 1.7588904e-06)
        CmYaw       : -0.00066329901	(pressure: -0.00065775835	viscous: -5.5406598e-06)
        Cd(f)    : 1.3327673
        Cd(r)    : 1.3327675
        Cs(f)    : 0.0014155182
        Cs(r)    : 0.0027421162
        Cl(f)    : -0.0024772722
        Cl(r)    : -0.00028339206
forces force_computation write:
    Sum of forces
        Total    : (96.711465 -0.10016297 -0.15084812)
        Pressure : (90.816069 -0.09997813 -0.15083524)
        Viscous  : (5.8953955 -0.00018484293 -1.287592e-05)
    Sum of moments
        Total    : (-5.9779754e-06 -0.036098921 0.059699099)
        Pressure : (3.2015862e-06 -0.03579738 0.059794823)
        Viscous  : (-9.1795616e-06 -0.00030154098 -9.572462e-05)


Time = 10

smoothSolver:  Solving for Ux, Initial residual = 0.015159145, Final residual = 0.00057685639, No Iterations 2
smoothSolver:  Solving for Uy, Initial residual = 0.079256016, Final residual = 0.0032959268, No Iterations 2
smoothSolver:  Solving for Uz, Initial residual = 0.080608485, Final residual = 0.0033467748, No Iterations 2
GAMG:  Solving for p, Initial residual = 0.028408179, Final residual = 0.00013952328, No Iterations 5
GAMG:  Solving for p, Initial residual = 0.024730414, Final residual = 0.00012695772, No Iterations 3
GAMG:  Solving for p, Initial residual = 0.0043243683, Final residual = 3.9433072e-05, No Iterations 3
GAMG:  Solving for p, Initial residual = 0.00099988515, Final residual = 7.6711406e-06, No Iterations 3
GAMG:  Solving for p, Initial residual = 0.00026770239, Final residual = 2.026512e-06, No Iterations 3
GAMG:  Solving for p, Initial residual = 7.4561582e-05, Final residual = 4.8552962e-07, No Iterations 3
time step continuity errors : sum local = 6.3249787e-08, global = -1.5119279e-08, cumulative = 5.6228365e-08
smoothSolver:  Solving for omega, Initial residual = 0.0045773231, Final residual = 0.0003556766, No Iterations 2
smoothSolver:  Solving for k, Initial residual = 0.019499448, Final residual = 0.0014879491, No Iterations 2
ExecutionTime = 2.58 s  ClockTime = 2 s

forceCoeffs forceCoeffs_cl execute:
    Coefficients
        Cd       : 0.077860378	(pressure: 0.063985284	viscous: 0.013875093)
        Cs       : -0.00011020369	(pressure: -0.00011141253	viscous: 1.2088341e-06)
        Cl       : -4.6282848e-05	(pressure: -4.422195e-05	viscous: -2.0608985e-06)
        CmRoll       : -1.2510582e-08	(pressure: -1.399367e-09	viscous: -1.1111215e-08)
        CmPitch       : -0.00012069319	(pressure: -0.00012149641	viscous: 8.0321461e-07)
        CmYaw       : 5.8879677e-07	(pressure: 5.4814014e-07	viscous: 4.0656632e-08)
        Cd(f)    : 0.038930176
        Cd(r)    : 0.038930201
        Cs(f)    : -5.451305e-05
        Cs(r)    : -5.5690644e-05
        Cl(f)    : -0.00014383462
        Cl(r)    : 9.7551769e-05
forceCoeffs forceCoeffs_cd execute:
    Coefficients
        Cd       : 0.91067084	(pressure: 0.74838492	viscous: 0.16228592)
        Cs       : -0.0012889649	(pressure: -0.0013031036	viscous: 1.413877e-05)
        Cl       : -0.00054133362	(pressure: -0.00051722893	viscous: -2.4104689e-05)
        CmRoll       : -1.4632631e-07	(pressure: -1.6367281e-08	viscous: -1.2995903e-07)
        CmPitch       : -0.0014116522	(pressure: -0.0014210467	viscous: 9.3945617e-06)
        CmYaw       : 6.886687e-06	(pressure: 6.4111588e-06	viscous: 4.7552826e-07)
        Cd(f)    : 0.45533527
        Cd(r)    : 0.45533557
        Cs(f)    : -0.00063759574
        Cs(r)    : -0.00065136911
        Cl(f)    : -0.001682319
        Cl(r)    : 0.0011409854
forces force_computation write:
    Sum of forces
        Total    : (33.041141 -0.019640774 0.04676648)
        Pressure : (27.153051 -0.018766203 0.047279466)
        Viscous  : (5.8880901 -0.00087457114 -0.00051298569)
    Sum of moments
        Total    : (-7.9635606e-06 0.00037479623 0.076826769)
        Pressure : (-8.9076143e-07 0.00034891641 0.077338052)
        Viscous  : (-7.0727992e-06 2.5879816e-05 -0.00051128304)


Time = 11

smoothSolver:  Solving for Ux, Initial residual = 0.0068759813, Final residual = 0.00023601044, No Iterations 2
smoothSolver:  Solving for Uy, Initial residual = 0.040601657, Final residual = 0.0014186502, No Iterations 2
smoothSolver:  Solving for Uz, Initial residual = 0.039365082, Final residual = 0.0014008495, No Iterations 2
GAMG:  Solving for p, Initial residual = 0.029458561, Final residual = 0.00014820472, No Iterations 5
GAMG:  Solving for p, Initial residual = 0.016733964, Final residual = 9.2870376e-05, No Iterations 3
GAMG:  Solving for p, Initial residual = 0.0021670072, Final residual = 1.8758026e-05, No Iterations 3
GAMG:  Solving for p, Initial residual = 0.00045929333, Final residual = 3.8389888e-06, No Iterations 3
GAMG:  Solving for p, Initial residual = 0.00012498827, Final residual = 9.8392677e-07, No Iterations 3
GAMG:  Solving for p, Initial residual = 3.3865919e-05, Final residual = 2.5417594e-07, No Iterations 3
time step continuity errors : sum local = 6.5903064e-08, global = -1.6377286e-08, cumulative = 3.9851079e-08
smoothSolver:  Solving for omega, Initial residual = 0.0039530128, Final residual = 0.00031369593, No Iterations 2
smoothSolver:  Solving for k, Initial residual = 0.016537322, Final residual = 0.0012880882, No Iterations 2
ExecutionTime = 2.84 s  ClockTime = 3 s

forceCoeffs forceCoeffs_cl execute:
    Coefficients
        Cd       : -0.050353948	(pressure: -0.064253847	viscous: 0.013899899)
        Cs       : -0.00025809662	(pressure: -0.00025963144	viscous: 1.5348287e-06)
        Cl       : 0.0001786103	(pressure: 0.00018184433	viscous: -3.2340329e-06)
        CmRoll       : -3.5181515e-09	(pressure: -4.2934036e-09	viscous: 7.7525208e-10)
        CmPitch       : -7.5359426e-05	(pressure: -7.6593478e-05	viscous: 1.2340516e-06)
        CmYaw       : 7.4413887e-05	(pressure: 7.4235678e-05	viscous: 1.7820958e-07)
        Cd(f)    : -0.025176977
        Cd(r)    : -0.02517697
        Cs(f)    : -5.4634421e-05
        Cs(r)    : -0.0002034622
        Cl(f)    : 1.3945722e-05
        Cl(r)    : 0.00016466457
forceCoeffs forceCoeffs_cd execute:
    Coefficients
        Cd       : -0.58895003	(pressure: -0.75152608	viscous: 0.16257605)
        Cs       : -0.0030187506	(pressure: -0.0030367023	viscous: 1.7951669e-05)
        Cl       : 0.0020890624	(pressure: 0.0021268883	viscous: -3.7825907e-05)
        CmRoll       : -4.1149017e-08	(pressure: -5.0216523e-08	viscous: 9.0675063e-09)
        CmPitch       : -0.0008814192	(pressure: -0.00089585292	viscous: 1.4433719e-05)
        CmYaw       : 0.00087035998	(pressure: 0.00086827561	viscous: 2.0843756e-06)
        Cd(f)    : -0.29447506
        Cd(r)    : -0.29447497
        Cs(f)    : -0.00063901532
        Cs(r)    : -0.0023797353
        Cl(f)    : 0.000163112
        Cl(r)    : 0.0019259504
forces force_computation write:
    Sum of forces
        Total    : (-21.368403 0.075795779 0.10952691)
        Pressure : (-27.267019 0.077168186 0.11017824)
        Viscous  : (5.8986166 -0.0013724071 -0.00065132604)
    Sum of moments
        Total    : (-2.2394653e-06 0.047367862 0.047969741)
        Pressure : (-2.7329489e-06 0.047254423 0.048755272)
        Viscous  : (4.9348361e-07 0.0001134386 -0.00078553062)


Time = 12

smoothSolver:  Solving for Ux, Initial residual = 0.006785268, Final residual = 0.00023777551, No Iterations 2
smoothSolver:  Solving for Uy, Initial residual = 0.075651341, Final residual = 0.0031343082, No Iterations 2
smoothSolver:  Solving for Uz, Initial residual = 0.074844722, Final residual = 0.0031401404, No Iterations 2
GAMG:  Solving for p, Initial residual = 0.041062845, Final residual = 0.00026707071, No Iterations 4
GAMG:  Solving for p, Initial residual = 0.014121323, Final residual = 9.2202522e-05, No Iterations 3
GAMG:  Solving for p, Initial residual = 0.0016416661, Final residual = 1.3004647e-05, No Iterations 3
GAMG:  Solving for p, Initial residual = 0.00029828618, Final residual = 2.2604651e-06, No Iterations 3
GAMG:  Solving for p, Initial residual = 7.1129912e-05, Final residual = 5.2107004e-07, No Iterations 3
GAMG:  Solving for p, Initial residual = 1.7783121e-05, Final residual = 1.2441503e-07, No Iterations 3
time step continuity errors : sum local = 2.1006734e-08, global = -5.0041136e-09, cumulative = 3.4846965e-08
smoothSolver:  Solving for omega, Initial residual = 0.0034310586, Final residual = 0.0002762756, No Iterations 2
smoothSolver:  Solving for k, Initial residual = 0.014120601, Final residual = 0.0011177411, No Iterations 2
ExecutionTime = 3.08 s  ClockTime = 3 s

forceCoeffs forceCoeffs_cl execute:
    Coefficients
        Cd       : -0.083827335	(pressure: -0.097861335	viscous: 0.014034)
        Cs       : -0.00025363347	(pressure: -0.00025410209	viscous: 4.6861999e-07)
        Cl       : 0.00035699496	(pressure: 0.00036003634	viscous: -3.0413797e-06)
        CmRoll       : -3.7473843e-08	(pressure: -8.2147026e-09	viscous: -2.925914e-08)
        CmPitch       : -2.8247262e-05	(pressure: -2.9420755e-05	viscous: 1.1734932e-06)
        CmYaw       : 3.8445035e-05	(pressure: 3.8734347e-05	viscous: -2.8931214e-07)
        Cd(f)    : -0.041913705
        Cd(r)    : -0.04191363
        Cs(f)    : -8.83717e-05
        Cs(r)    : -0.00016526177
        Cl(f)    : 0.00015025022
        Cl(r)    : 0.00020674474
forceCoeffs forceCoeffs_cd execute:
    Coefficients
        Cd       : -0.98046159	(pressure: -1.1446061	viscous: 0.16414452)
        Cs       : -0.0029665487	(pressure: -0.0029720298	viscous: 5.4810748e-06)
        Cl       : 0.0041754857	(pressure: 0.0042110583	viscous: -3.5572596e-05)
        CmRoll       : -4.383017e-07	(pressure: -9.6080835e-08	viscous: -3.4222087e-07)
        CmPitch       : -0.00033038573	(pressure: -0.00034411115	viscous: 1.3725415e-05)
        CmYaw       : 0.00044966096	(pressure: 0.00045304481	viscous: -3.3838537e-06)
        Cd(f)    : -0.49023123
        Cd(r)    : -0.49023036
        Cs(f)    : -0.0010336134
        Cs(r)    : -0.0019329353
        Cl(f)    : 0.0017573571
        Cl(r)    : 0.0024181286
forces force_computation write:
    Sum of forces
        Total    : (-35.573303 0.15149581 0.10763291)
        Pressure : (-41.528827 0.15278646 0.10783178)
        Viscous  : (5.9555242 -0.001290652 -0.00019886545)
    Sum of moments
        Total    : (-2.3853825e-05 0.024472033 0.017980681)
        Pressure : (-5.229036e-06 0.024656193 0.018727664)
        Viscous  : (-1.8624789e-05 -0.00018416048 -0.00074698238)


Time = 13

smoothSolver:  Solving for Ux, Initial residual = 0.0068530384, Final residual = 0.00024787611, No Iterations 2
smoothSolver:  Solving for Uy, Initial residual = 0.072204495, Final residual = 0.0029892389, No Iterations 2
smoothSolver:  Solving for Uz, Initial residual = 0.073170972, Final residual = 0.0030350407, No Iterations 2
GAMG:  Solving for p, Initial residual = 0.080573675, Final residual = 0.00069372276, No Iterations 4
GAMG:  Solving for p, Initial residual = 0.015441899, Final residual = 0.00010827945, No Iterations 3
GAMG:  Solving for p, Initial residual = 0.0018277955, Final residual = 1.7064936e-05, No Iterations 3
GAMG:  Solving for p, Initial residual = 0.00033704017, Final residual = 3.0881462e-06, No Iterations 3
GAMG:  Solving for p, Initial residual = 8.0254927e-05, Final residual = 6.7662661e-07, No Iterations 3
GAMG:  Solving for p, Initial residual = 2.0313803e-05, Final residual = 1.6572472e-07, No Iterations 3
time step continuity errors : sum local = 3.0832263e-08, global = 6.8144699e-09, cumulative = 4.1661435e-08
smoothSolver:  Solving for omega, Initial residual = 0.0029642876, Final residual = 0.0002409903, No Iterations 2
smoothSolver:  Solving for k, Initial residual = 0.012207664, Final residual = 0.00097853685, No Iterations 2
ExecutionTime = 3.31 s  ClockTime = 3 s

forceCoeffs forceCoeffs_cl execute:
    Coefficients
        Cd       : -0.031092527	(pressure: -0.045349079	viscous: 0.014256553)
        Cs       : -9.2470216e-05	(pressure: -9.2982473e-05	viscous: 5.1225696e-07)
        Cl       : 0.000399397	(pressure: 0.00040051772	viscous: -1.1207118e-06)
        CmRoll       : -1.8189468e-08	(pressure: -5.5187298e-09	viscous: -1.2670738e-08)
        CmPitch       : -3.2201151e-05	(pressure: -3.2586631e-05	viscous: 3.8547944e-07)
        CmYaw       : -2.3001845e-05	(pressure: -2.2717514e-05	viscous: -2.8433087e-07)
        Cd(f)    : -0.015546282
        Cd(r)    : -0.015546245
        Cs(f)    : -6.9236953e-05
        Cs(r)    : -2.3233263e-05
        Cl(f)    : 0.00016749735
        Cl(r)    : 0.00023189965
forceCoeffs forceCoeffs_cd execute:
    Coefficients
        Cd       : -0.36366453	(pressure: -0.53041207	viscous: 0.16674754)
        Cs       : -0.0010815505	(pressure: -0.001087542	viscous: 5.9914618e-06)
        Cl       : 0.0046714287	(pressure: 0.0046845368	viscous: -1.3108073e-05)
        CmRoll       : -2.1274773e-07	(pressure: -6.4548188e-08	viscous: -1.4819954e-07)
        CmPitch       : -0.00037663123	(pressure: -0.00038113987	viscous: 4.508646e-06)
        CmYaw       : -0.00026903426	(pressure: -0.00026570867	viscous: -3.3255918e-06)
        Cd(f)    : -0.18183248
        Cd(r)    : -0.18183205
        Cs(f)    : -0.00080980951
        Cs(r)    : -0.00027174098
        Cl(f)    : 0.0019590831
        Cl(r)    : 0.0027123456
forces force_computation write:
    Sum of forces
        Total    : (-13.194549 0.16948971 0.039241031)
        Pressure : (-19.244517 0.1699653 0.039458414)
        Viscous  : (6.0499676 -0.00047558973 -0.00021738341)
    Sum of moments
        Total    : (-1.1578433e-05 -0.014641732 0.020497514)
        Pressure : (-3.5129253e-06 -0.014460742 0.020742889)
        Viscous  : (-8.0655078e-06 -0.00018098968 -0.00024537539)


Time = 14

smoothSolver:  Solving for Ux, Initial residual = 0.0051246129, Final residual = 0.00016823687, No Iterations 2
smoothSolver:  Solving for Uy, Initial residual = 0.037752401, Final residual = 0.0014161341, No Iterations 2
smoothSolver:  Solving for Uz, Initial residual = 0.038283592, Final residual = 0.001408904, No Iterations 2
GAMG:  Solving for p, Initial residual = 0.074388622, Final residual = 0.00073472742, No Iterations 4
GAMG:  Solving for p, Initial residual = 0.0055673371, Final residual = 4.1803934e-05, No Iterations 3
GAMG:  Solving for p, Initial residual = 0.00080575648, Final residual = 3.3536015e-06, No Iterations 4
GAMG:  Solving for p, Initial residual = 0.00017990007, Final residual = 1.0740627e-06, No Iterations 3
GAMG:  Solving for p, Initial residual = 4.7362415e-05, Final residual = 3.3289915e-07, No Iterations 3
GAMG:  Solving for p, Initial residual = 1.3682132e-05, Final residual = 8.875804e-08, No Iterations 3
time step continuity errors : sum local = 4.2365548e-08, global = 9.377508e-09, cumulative = 5.1038943e-08
smoothSolver:  Solving for omega, Initial residual = 0.0025648411, Final residual = 0.00021027492, No Iterations 2
smoothSolver:  Solving for k, Initial residual = 0.010639214, Final residual = 0.00086116397, No Iterations 2
ExecutionTime = 3.55 s  ClockTime = 3 s

forceCoeffs forceCoeffs_cl execute:
    Coefficients
        Cd       : 0.044664929	(pressure: 0.030160773	viscous: 0.014504156)
        Cs       : 7.5790145e-05	(pressure: 7.5770238e-05	viscous: 1.9907011e-08)
        Cl       : 0.0002681998	(pressure: 0.00026843945	viscous: -2.3965726e-07)
        CmRoll       : -2.5836617e-08	(pressure: -3.0369237e-09	viscous: -2.2799693e-08)
        CmPitch       : -5.6453293e-05	(pressure: -5.6416984e-05	viscous: -3.6309299e-08)
        CmYaw       : -5.067306e-05	(pressure: -5.017828e-05	viscous: -4.9478028e-07)
        Cd(f)    : 0.022332438
        Cd(r)    : 0.02233249
        Cs(f)    : -1.2777987e-05
        Cs(r)    : 8.8568133e-05
        Cl(f)    : 7.7646606e-05
        Cl(r)    : 0.00019055319
forceCoeffs forceCoeffs_cd execute:
    Coefficients
        Cd       : 0.52241011	(pressure: 0.35276654	viscous: 0.16964356)
        Cs       : 0.00088645698	(pressure: 0.00088622414	viscous: 2.3283645e-07)
        Cl       : 0.0031369195	(pressure: 0.0031397226	viscous: -2.8030801e-06)
        CmRoll       : -3.0219034e-07	(pressure: -3.5520479e-08	viscous: -2.6666986e-07)
        CmPitch       : -0.00066028921	(pressure: -0.00065986453	viscous: -4.2468095e-07)
        CmYaw       : -0.00059268243	(pressure: -0.00058689538	viscous: -5.787051e-06)
        Cd(f)    : 0.26120475
        Cd(r)    : 0.26120535
        Cs(f)    : -0.00014945394
        Cs(r)    : 0.0010359109
        Cl(f)    : 0.00090817052
        Cl(r)    : 0.002228749
forces force_computation write:
    Sum of forces
        Total    : (18.954188 0.11381434 -0.032162609)
        Pressure : (12.799146 0.11391604 -0.032154161)
        Viscous  : (6.1550415 -0.00010170191 -8.4478186e-06)
    Sum of moments
        Total    : (-1.6446195e-05 -0.032255733 0.035935117)
        Pressure : (-1.9331416e-06 -0.031940783 0.035912005)
        Viscous  : (-1.4513053e-05 -0.00031495041 2.3112539e-05)


Time = 15

smoothSolver:  Solving for Ux, Initial residual = 0.0047408093, Final residual = 0.00014988796, No Iterations 2
smoothSolver:  Solving for Uy, Initial residual = 0.047035723, Final residual = 0.0018304044, No Iterations 2
smoothSolver:  Solving for Uz, Initial residual = 0.044489011, Final residual = 0.0017683302, No Iterations 2
GAMG:  Solving for p, Initial residual = 0.035658256, Final residual = 0.00027016357, No Iterations 4
GAMG:  Solving for p, Initial residual = 0.0024706596, Final residual = 1.7080151e-05, No Iterations 3
GAMG:  Solving for p, Initial residual = 0.00035052412, Final residual = 3.1867637e-06, No Iterations 3
GAMG:  Solving for p, Initial residual = 7.4817424e-05, Final residual = 5.7318454e-07, No Iterations 3
GAMG:  Solving for p, Initial residual = 2.0054698e-05, Final residual = 1.4935619e-07, No Iterations 3
GAMG:  Solving for p, Initial residual = 5.6775238e-06, Final residual = 7.4083775e-08, No Iterations 2
time step continuity errors : sum local = 4.236399e-08, global = 1.5896592e-08, cumulative = 6.6935535e-08
smoothSolver:  Solving for omega, Initial residual = 0.0022550525, Final residual = 0.00018583911, No Iterations 2
smoothSolver:  Solving for k, Initial residual = 0.0093530692, Final residual = 0.00076255291, No Iterations 2
ExecutionTime = 3.78 s  ClockTime = 3 s

forceCoeffs forceCoeffs_cl execute:
    Coefficients
        Cd       : 0.087528687	(pressure: 0.072846293	viscous: 0.014682395)
        Cs       : 0.00010844462	(pressure: 0.00010816899	viscous: 2.7562719e-07)
        Cl       : 5.3813089e-05	(pressure: 5.4315895e-05	viscous: -5.0280563e-07)
        CmRoll       : -2.4840477e-08	(pressure: -3.3379895e-09	viscous: -2.1502487e-08)
        CmPitch       : -6.7953023e-05	(pressure: -6.8004725e-05	viscous: 5.1701714e-08)
        CmYaw       : -3.3491205e-05	(pressure: -3.3111918e-05	viscous: -3.7928701e-07)
        Cd(f)    : 0.043764319
        Cd(r)    : 0.043764369
        Cs(f)    : 2.0731105e-05
        Cs(r)    : 8.7713515e-05
        Cl(f)    : -4.1046479e-05
        Cl(r)    : 9.4859568e-05
forceCoeffs forceCoeffs_cd execute:
    Coefficients
        Cd       : 1.0237534	(pressure: 0.85202508	viscous: 0.17172828)
        Cs       : 0.0012683904	(pressure: 0.0012651666	viscous: 3.2237918e-06)
        Cl       : 0.00062940885	(pressure: 0.00063528977	viscous: -5.8809171e-06)
        CmRoll       : -2.9053928e-07	(pressure: -3.9041806e-08	viscous: -2.5149747e-07)
        CmPitch       : -0.00079479241	(pressure: -0.00079539712	viscous: 6.0471378e-07)
        CmYaw       : -0.00039171996	(pressure: -0.00038728374	viscous: -4.4362181e-06)
        Cd(f)    : 0.51187639
        Cd(r)    : 0.51187697
        Cs(f)    : 0.00024247522
        Cs(r)    : 0.0010259151
        Cl(f)    : -0.00048008798
        Cl(r)    : 0.0011094968
forces force_computation write:
    Sum of forces
        Total    : (37.144024 0.022836338 -0.046019992)
        Pressure : (30.913344 0.02304971 -0.045903026)
        Viscous  : (6.2306798 -0.00021337261 -0.00011696626)
    Sum of moments
        Total    : (-1.5812106e-05 -0.021318692 0.043255225)
        Pressure : (-2.1247839e-06 -0.021077259 0.043288135)
        Viscous  : (-1.3687322e-05 -0.00024143363 -3.2910519e-05)


Time = 16

smoothSolver:  Solving for Ux, Initial residual = 0.0049828762, Final residual = 0.0001755375, No Iterations 2
smoothSolver:  Solving for Uy, Initial residual = 0.047169548, Final residual = 0.0018869315, No Iterations 2
smoothSolver:  Solving for Uz, Initial residual = 0.046216335, Final residual = 0.0018727073, No Iterations 2
GAMG:  Solving for p, Initial residual = 0.025528766, Final residual = 0.00017583804, No Iterations 4
GAMG:  Solving for p, Initial residual = 0.0027745411, Final residual = 1.8015359e-05, No Iterations 3
GAMG:  Solving for p, Initial residual = 0.00034420227, Final residual = 2.9958043e-06, No Iterations 3
GAMG:  Solving for p, Initial residual = 6.2769385e-05, Final residual = 4.9512196e-07, No Iterations 3
GAMG:  Solving for p, Initial residual = 1.4612086e-05, Final residual = 1.0691265e-07, No Iterations 3
GAMG:  Solving for p, Initial residual = 3.6714153e-06, Final residual = 5.5119926e-08, No Iterations 2
time step continuity errors : sum local = 2.5843386e-08, global = -7.3612102e-09, cumulative = 5.9574324e-08
smoothSolver:  Solving for omega, Initial residual = 0.0020191448, Final residual = 0.00016705284, No Iterations 2
smoothSolver:  Solving for k, Initial residual = 0.0083226681, Final residual = 0.0006821297, No Iterations 2
ExecutionTime = 4.01 s  ClockTime = 4 s

forceCoeffs forceCoeffs_cl execute:
    Coefficients
        Cd       : 0.080880849	(pressure: 0.06610734	viscous: 0.014773508)
        Cs       : 2.0360729e-05	(pressure: 2.0107162e-05	viscous: 2.5356699e-07)
        Cl       : -5.3225893e-05	(pressure: -5.2480849e-05	viscous: -7.4504425e-07)
        CmRoll       : -2.0793308e-08	(pressure: -3.6778151e-09	viscous: -1.7115493e-08)
        CmPitch       : -7.1996742e-05	(pressure: -7.2155806e-05	viscous: 1.5906456e-07)
        CmYaw       : 1.9401418e-06	(pressure: 2.3205742e-06	viscous: -3.8043245e-07)
        Cd(f)    : 0.040440403
        Cd(r)    : 0.040440445
        Cs(f)    : 1.2120506e-05
        Cs(r)    : 8.2402227e-06
        Cl(f)    : -9.8609689e-05
        Cl(r)    : 4.5383795e-05
forceCoeffs forceCoeffs_cd execute:
    Coefficients
        Cd       : 0.94599888	(pressure: 0.77320492	viscous: 0.17279396)
        Cs       : 0.00023814323	(pressure: 0.00023517746	viscous: 2.9657712e-06)
        Cl       : -0.00062254089	(pressure: -0.0006138267	viscous: -8.7141893e-06)
        CmRoll       : -2.4320277e-07	(pressure: -4.3016474e-08	viscous: -2.0018629e-07)
        CmPitch       : -0.00084208856	(pressure: -0.00084394901	viscous: 1.8604515e-06)
        CmYaw       : 2.2692293e-05	(pressure: 2.7141909e-05	viscous: -4.4496154e-06)
        Cd(f)    : 0.4729992
        Cd(r)    : 0.47299968
        Cs(f)    : 0.00014176391
        Cs(r)    : 9.6379324e-05
        Cl(f)    : -0.001153359
        Cl(r)    : 0.00053081811
forces force_computation write:
    Sum of forces
        Total    : (34.32292 -0.022587153 -0.0086403603)
        Pressure : (28.053575 -0.022270983 -0.0085327556)
        Viscous  : (6.269345 -0.00031616995 -0.0001076047)
    Sum of moments
        Total    : (-1.3235897e-05 0.0012349895 0.045829238)
        Pressure : (-2.3410985e-06 0.0014771522 0.04593049)
        Viscous  : (-1.0894799e-05 -0.00024216275 -0.00010125191)


Time = 17

smoothSolver:  Solving for Ux, Initial residual = 0.0040492092, Final residual = 0.00014189947, No Iterations 2
smoothSolver:  Solving for Uy, Initial residual = 0.027233924, Final residual = 0.0010166561, No Iterations 2
smoothSolver:  Solving for Uz, Initial residual = 0.027451861, Final residual = 0.0010379175, No Iterations 2
GAMG:  Solving for p, Initial residual = 0.023284125, Final residual = 0.00017559579, No Iterations 4
GAMG:  Solving for p, Initial residual = 0.0051980172, Final residual = 3.5182605e-05, No Iterations 3
GAMG:  Solving for p, Initial residual = 0.00084929926, Final residual = 7.1164711e-06, No Iterations 3
GAMG:  Solving for p, Initial residual = 0.00017934266, Final residual = 1.3911368e-06, No Iterations 3
GAMG:  Solving for p, Initial residual = 4.6954688e-05, Final residual = 3.4152823e-07, No Iterations 3
GAMG:  Solving for p, Initial residual = 1.2885422e-05, Final residual = 9.1241262e-08, No Iterations 3
time step continuity errors : sum local = 2.202465e-08, global = -5.3285297e-09, cumulative = 5.4245795e-08
smoothSolver:  Solving for omega, Initial residual = 0.0018354711, Final residual = 0.00015247584, No Iterations 2
smoothSolver:  Solving for k, Initial residual = 0.0074671379, Final residual = 0.00061484153, No Iterations 2
ExecutionTime = 4.24 s  ClockTime = 4 s

forceCoeffs forceCoeffs_cl execute:
    Coefficients
        Cd       : 0.043299178	(pressure: 0.028481623	viscous: 0.014817555)
        Cs       : -7.5132209e-05	(pressure: -7.5259587e-05	viscous: 1.2737809e-07)
        Cl       : 3.1482708e-05	(pressure: 3.2501256e-05	viscous: -1.0185478e-06)
        CmRoll       : -1.8868439e-08	(pressure: -3.7706441e-09	viscous: -1.5097795e-08)
        CmPitch       : -7.7331905e-05	(pressure: -7.7612287e-05	viscous: 2.8038183e-07)
        CmYaw       : 2.7303972e-05	(pressure: 2.76979e-05	viscous: -3.9392854e-07)
        Cd(f)    : 0.02164957
        Cd(r)    : 0.021649608
        Cs(f)    : -1.0262133e-05
        Cs(r)    : -6.4870076e-05
        Cl(f)    : -6.1590551e-05
        Cl(r)    : 9.3073259e-05
forceCoeffs forceCoeffs_cd execute:
    Coefficients
        Cd       : 0.50643601	(pressure: 0.33312687	viscous: 0.17330914)
        Cs       : -0.00087876163	(pressure: -0.00088025147	viscous: 1.4898401e-06)
        Cl       : 0.00036822816	(pressure: 0.00038014131	viscous: -1.1913143e-05)
        CmRoll       : -2.2068911e-07	(pressure: -4.4102222e-08	viscous: -1.7658689e-07)
        CmPitch       : -0.00090448972	(pressure: -0.00090776912	viscous: 3.279403e-06)
        CmYaw       : 0.00031935281	(pressure: 0.00032396028	viscous: -4.6074685e-06)
        Cd(f)    : 0.25321778
        Cd(r)    : 0.25321822
        Cs(f)    : -0.000120028
        Cs(r)    : -0.00075873363
        Cl(f)    : -0.00072037564
        Cl(r)    : 0.0010886038
forces force_computation write:
    Sum of forces
        Total    : (18.374612 0.013360128 0.031883405)
        Pressure : (12.086575 0.013792363 0.031937459)
        Viscous  : (6.2880368 -0.00043223503 -5.4054675e-05)
    Sum of moments
        Total    : (-1.2010629e-05 0.017380234 0.049225314)
        Pressure : (-2.4001884e-06 0.017630987 0.04940379)
        Viscous  : (-9.6104409e-06 -0.00025075364 -0.00017847593)


Time = 18

smoothSolver:  Solving for Ux, Initial residual = 0.003050922, Final residual = 0.00010021262, No Iterations 2
smoothSolver:  Solving for Uy, Initial residual = 0.022026859, Final residual = 0.0007303132, No Iterations 2
smoothSolver:  Solving for Uz, Initial residual = 0.021515306, Final residual = 0.0007232165, No Iterations 2
GAMG:  Solving for p, Initial residual = 0.021135466, Final residual = 0.00014228145, No Iterations 4
GAMG:  Solving for p, Initial residual = 0.0084935346, Final residual = 6.5657328e-05, No Iterations 3
GAMG:  Solving for p, Initial residual = 0.0017079659, Final residual = 1.5133001e-05, No Iterations 3
GAMG:  Solving for p, Initial residual = 0.0004005862, Final residual = 3.1108338e-06, No Iterations 3
GAMG:  Solving for p, Initial residual = 0.00011080089, Final residual = 8.2558665e-07, No Iterations 3
GAMG:  Solving for p, Initial residual = 3.1772778e-05, Final residual = 2.1895614e-07, No Iterations 3
time step continuity errors : sum local = 2.0723409e-08, global = -4.8420822e-09, cumulative = 4.9403713e-08
smoothSolver:  Solving for omega, Initial residual = 0.0016767164, Final residual = 0.00014021241, No Iterations 2
smoothSolver:  Solving for k, Initial residual = 0.0067137427, Final residual = 0.00055544302, No Iterations 2
ExecutionTime = 4.49 s  ClockTime = 4 s

forceCoeffs forceCoeffs_cl execute:
    Coefficients
        Cd       : 0.010935166	(pressure: -0.0039311627	viscous: 0.014866328)
        Cs       : -0.00011162639	(pressure: -0.00011169074	viscous: 6.4351782e-08)
        Cl       : 0.0001971804	(pressure: 0.00019808279	viscous: -9.0239432e-07)
        CmRoll       : -1.7171766e-08	(pressure: -3.7150557e-09	viscous: -1.345671e-08)
        CmPitch       : -8.1280842e-05	(pressure: -8.152082e-05	viscous: 2.3997822e-07)
        CmYaw       : 2.81311e-05	(pressure: 2.8539443e-05	viscous: -4.0834272e-07)
        Cd(f)    : 0.0054675656
        Cd(r)    : 0.0054676
        Cs(f)    : -2.7682095e-05
        Cs(r)    : -8.3944295e-05
        Cl(f)    : 1.7309358e-05
        Cl(r)    : 0.00017987104
forceCoeffs forceCoeffs_cd execute:
    Coefficients
        Cd       : 0.12789993	(pressure: -0.045979679	viscous: 0.1738796)
        Cs       : -0.001305605	(pressure: -0.0013063577	viscous: 7.5267155e-07)
        Cl       : 0.0023062621	(pressure: 0.0023168167	viscous: -1.0554588e-05)
        CmRoll       : -2.0084448e-07	(pressure: -4.3452049e-08	viscous: -1.5739243e-07)
        CmPitch       : -0.00095067729	(pressure: -0.00095348412	viscous: 2.8068341e-06)
        CmYaw       : 0.00032902708	(pressure: 0.00033380314	viscous: -4.7760596e-06)
        Cd(f)    : 0.063949762
        Cd(r)    : 0.063950163
        Cs(f)    : -0.00032377542
        Cs(r)    : -0.00098182958
        Cl(f)    : 0.00020245377
        Cl(r)    : 0.0021038084
forces force_computation write:
    Sum of forces
        Total    : (4.6404906 0.083676262 0.047370221)
        Pressure : (-1.6682439 0.084059206 0.04739753)
        Viscous  : (6.3087345 -0.00038294366 -2.7308579e-05)
    Sum of moments
        Total    : (-1.0930619e-05 0.017906739 0.051738995)
        Pressure : (-2.3648038e-06 0.018166668 0.051891752)
        Viscous  : (-8.5658152e-06 -0.00025992892 -0.00015275717)


Time = 19

smoothSolver:  Solving for Ux, Initial residual = 0.002707005, Final residual = 9.2866096e-05, No Iterations 2
smoothSolver:  Solving for Uy, Initial residual = 0.029166322, Final residual = 0.0010844066, No Iterations 2
smoothSolver:  Solving for Uz, Initial residual = 0.02791162, Final residual = 0.0010828365, No Iterations 2
GAMG:  Solving for p, Initial residual = 0.02095587, Final residual = 0.00013230784, No Iterations 4
GAMG:  Solving for p, Initial residual = 0.0081778375, Final residual = 5.8554157e-05, No Iterations 3
GAMG:  Solving for p, Initial residual = 0.0012012562, Final residual = 1.0044928e-05, No Iterations 3
GAMG:  Solving for p, Initial residual = 0.00024087521, Final residual = 1.9852836e-06, No Iterations 3
GAMG:  Solving for p, Initial residual = 5.8426519e-05, Final residual = 4.4638696e-07, No Iterations 3
GAMG:  Solving for p, Initial residual = 1.5698314e-05, Final residual = 1.1982543e-07, No Iterations 3
time step continuity errors : sum local = 9.8685742e-09, global = 1.0600692e-09, cumulative = 5.0463782e-08
smoothSolver:  Solving for omega, Initial residual = 0.0015365646, Final residual = 0.00012930477, No Iterations 2
smoothSolver:  Solving for k, Initial residual = 0.0060503381, Final residual = 0.00050261788, No Iterations 2
ExecutionTime = 4.73 s  ClockTime = 4 s

forceCoeffs forceCoeffs_cl execute:
    Coefficients
        Cd       : 0.0041405978	(pressure: -0.010794742	viscous: 0.01493534)
        Cs       : -8.3426984e-05	(pressure: -8.3523836e-05	viscous: 9.6851476e-08)
        Cl       : 0.0002979985	(pressure: 0.00029858855	viscous: -5.9004783e-07)
        CmRoll       : -1.4930229e-08	(pressure: -3.30019e-09	viscous: -1.1630039e-08)
        CmPitch       : -7.4623319e-05	(pressure: -7.4742036e-05	viscous: 1.187173e-07)
        CmYaw       : 8.0244868e-06	(pressure: 8.418306e-06	viscous: -3.938192e-07)
        Cd(f)    : 0.002070284
        Cd(r)    : 0.0020703138
        Cs(f)    : -3.3689005e-05
        Cs(r)    : -4.9737979e-05
        Cl(f)    : 7.437593e-05
        Cl(r)    : 0.00022362257
forceCoeffs forceCoeffs_cd execute:
    Coefficients
        Cd       : 0.048429275	(pressure: -0.12625751	viscous: 0.17468678)
        Cs       : -0.00097577901	(pressure: -0.0009769118	viscous: 1.1327946e-06)
        Cl       : 0.0034854511	(pressure: 0.0034923525	viscous: -6.9013197e-06)
        CmRoll       : -1.74627e-07	(pressure: -3.8599694e-08	viscous: -1.3602731e-07)
        CmPitch       : -0.00087280954	(pressure: -0.00087419808	viscous: 1.3885418e-06)
        CmYaw       : 9.3856032e-05	(pressure: 9.8462222e-05	viscous: -4.6061897e-06)
        Cd(f)    : 0.024214463
        Cd(r)    : 0.024214812
        Cs(f)    : -0.00039403347
        Cs(r)    : -0.00058174554
        Cl(f)    : 0.00086991603
        Cl(r)    : 0.0026155351
forces force_computation write:
    Sum of forces
        Total    : (1.7571206 0.12645983 0.035403409)
        Pressure : (-4.5809001 0.12671023 0.035444509)
        Viscous  : (6.3380207 -0.00025039506 -4.110028e-05)
    Sum of moments
        Total    : (-9.5037776e-06 0.0051079549 0.047501175)
        Pressure : (-2.1007227e-06 0.0053586389 0.047576744)
        Viscous  : (-7.4030549e-06 -0.00025068404 -7.5569025e-05)


Time = 20

smoothSolver:  Solving for Ux, Initial residual = 0.0024456816, Final residual = 8.23468e-05, No Iterations 2
smoothSolver:  Solving for Uy, Initial residual = 0.02477461, Final residual = 0.00093112898, No Iterations 2
smoothSolver:  Solving for Uz, Initial residual = 0.023699176, Final residual = 0.00090744214, No Iterations 2
GAMG:  Solving for p, Initial residual = 0.026885002, Final residual = 0.00019749783, No Iterations 4
GAMG:  Solving for p, Initial residual = 0.0053562753, Final residual = 3.459383e-05, No Iterations 3
GAMG:  Solving for p, Initial residual = 0.00065981136, Final residual = 5.4057221e-06, No Iterations 3
GAMG:  Solving for p, Initial residual = 0.00012002157, Final residual = 1.069076e-06, No Iterations 3
GAMG:  Solving for p, Initial residual = 2.8485546e-05, Final residual = 2.6210385e-07, No Iterations 3
GAMG:  Solving for p, Initial residual = 7.1009687e-06, Final residual = 7.160623e-08, No Iterations 3
time step continuity errors : sum local = 1.1892364e-08, global = 2.694864e-09, cumulative = 5.3158646e-08
smoothSolver:  Solving for omega, Initial residual = 0.0014152971, Final residual = 0.00011945479, No Iterations 2
smoothSolver:  Solving for k, Initial residual = 0.0054764129, Final residual = 0.00045661945, No Iterations 2
ExecutionTime = 4.98 s  ClockTime = 5 s

forceCoeffs forceCoeffs_cl execute:
    Coefficients
        Cd       : 0.020300906	(pressure: 0.0052843353	viscous: 0.015016571)
        Cs       : -2.9505243e-05	(pressure: -2.9704579e-05	viscous: 1.9933633e-07)
        Cl       : 0.00027308866	(pressure: 0.00027339241	viscous: -3.0374657e-07)
        CmRoll       : -1.1599174e-08	(pressure: -2.9108572e-09	viscous: -8.6883169e-09)
        CmPitch       : -6.2821204e-05	(pressure: -6.283029e-05	viscous: 9.0855662e-09)
        CmYaw       : -7.3052072e-06	(pressure: -6.9510003e-06	viscous: -3.5420687e-07)
        Cd(f)    : 0.010150441
        Cd(r)    : 0.010150465
        Cs(f)    : -2.2057829e-05
        Cs(r)    : -7.4474143e-06
        Cl(f)    : 7.3723126e-05
        Cl(r)    : 0.00019936553
forceCoeffs forceCoeffs_cd execute:
    Coefficients
        Cd       : 0.23744353	(pressure: 0.061806662	viscous: 0.17563687)
        Cs       : -0.00034509933	(pressure: -0.00034743081	viscous: 2.3314783e-06)
        Cl       : 0.0031941006	(pressure: 0.0031976533	viscous: -3.5526817e-06)
        CmRoll       : -1.356663e-07	(pressure: -3.4045978e-08	viscous: -1.0162033e-07)
        CmPitch       : -0.00073476961	(pressure: -0.00073487587	viscous: 1.0626663e-07)
        CmYaw       : -8.5443192e-05	(pressure: -8.1300316e-05	viscous: -4.1428758e-06)
        Cd(f)    : 0.11872163
        Cd(r)    : 0.1187219
        Cs(f)    : -0.00025799286
        Cs(r)    : -8.7106475e-05
        Cl(f)    : 0.0008622807
        Cl(r)    : 0.0023318199
forces force_computation write:
    Sum of forces
        Total    : (8.6149737 0.115889 0.012520963)
        Pressure : (2.2424816 0.11601789 0.012605554)
        Viscous  : (6.372492 -0.00012889911 -8.459116e-05)
    Sum of moments
        Total    : (-7.3834078e-06 -0.0046501004 0.039988586)
        Pressure : (-1.8528945e-06 -0.0044246314 0.039994369)
        Viscous  : (-5.5305133e-06 -0.00022546897 -5.7833807e-06)


Time = 21

smoothSolver:  Solving for Ux, Initial residual = 0.0022163998, Final residual = 6.9190505e-05, No Iterations 2
smoothSolver:  Solving for Uy, Initial residual = 0.019802399, Final residual = 0.0007160414, No Iterations 2
smoothSolver:  Solving for Uz, Initial residual = 0.018847086, Final residual = 0.00068025164, No Iterations 2
GAMG:  Solving for p, Initial residual = 0.026735734, Final residual = 0.0001839551, No Iterations 4
GAMG:  Solving for p, Initial residual = 0.0029622523, Final residual = 1.909534e-05, No Iterations 3
GAMG:  Solving for p, Initial residual = 0.00041878421, Final residual = 3.1918213e-06, No Iterations 3
GAMG:  Solving for p, Initial residual = 8.275348e-05, Final residual = 5.9138604e-07, No Iterations 3
GAMG:  Solving for p, Initial residual = 2.0796123e-05, Final residual = 1.367963e-07, No Iterations 3
GAMG:  Solving for p, Initial residual = 5.5268483e-06, Final residual = 7.1584789e-08, No Iterations 2
time step continuity errors : sum local = 1.9198494e-08, global = 8.0793808e-09, cumulative = 6.1238027e-08
smoothSolver:  Solving for omega, Initial residual = 0.0013100474, Final residual = 0.00011068023, No Iterations 2
smoothSolver:  Solving for k, Initial residual = 0.0049836026, Final residual = 0.00041684041, No Iterations 2
ExecutionTime = 5.22 s  ClockTime = 5 s

forceCoeffs forceCoeffs_cl execute:
    Coefficients
        Cd       : 0.042768217	(pressure: 0.027675805	viscous: 0.015092413)
        Cs       : -3.0629751e-06	(pressure: -3.3485894e-06	viscous: 2.8561429e-07)
        Cl       : 0.00017837347	(pressure: 0.0001785529	viscous: -1.7943798e-07)
        CmRoll       : -8.8351262e-09	(pressure: -2.8932244e-09	viscous: -5.9419018e-09)
        CmPitch       : -5.7178151e-05	(pressure: -5.7146283e-05	viscous: -3.18679e-08)
        CmYaw       : -1.2869413e-05	(pressure: -1.2556321e-05	viscous: -3.1309217e-07)
        Cd(f)    : 0.0213841
        Cd(r)    : 0.021384117
        Cs(f)    : -1.4400901e-05
        Cs(r)    : 1.1337926e-05
        Cl(f)    : 3.2008582e-05
        Cl(r)    : 0.00014636488
forceCoeffs forceCoeffs_cd execute:
    Coefficients
        Cd       : 0.50022578	(pressure: 0.32370185	viscous: 0.17652393)
        Cs       : -3.5825181e-05	(pressure: -3.9165784e-05	viscous: 3.340603e-06)
        Cl       : 0.0020862924	(pressure: 0.0020883911	viscous: -2.0987432e-06)
        CmRoll       : -1.0333744e-07	(pressure: -3.3839742e-08	viscous: -6.9497694e-08)
        CmPitch       : -0.00066876731	(pressure: -0.00066839457	viscous: -3.7273345e-07)
        CmYaw       : -0.00015052328	(pressure: -0.00014686129	viscous: -3.6619898e-06)
        Cd(f)    : 0.25011279
        Cd(r)    : 0.25011299
        Cs(f)    : -0.00016843587
        Cs(r)    : 0.00013261069
        Cl(f)    : 0.00037437889
        Cl(r)    : 0.0017119135
forces force_computation write:
    Sum of forces
        Total    : (18.149292 0.075695277 0.0012998164)
        Pressure : (11.744615 0.075771424 0.0014210208)
        Viscous  : (6.4046765 -7.6147018e-05 -0.00012120442)
    Sum of moments
        Total    : (-5.6239642e-06 -0.0081919736 0.036396523)
        Pressure : (-1.8416704e-06 -0.007992676 0.036376238)
        Viscous  : (-3.7822938e-06 -0.00019929756 2.0285384e-05)


Time = 22

smoothSolver:  Solving for Ux, Initial residual = 0.0021916702, Final residual = 6.8920167e-05, No Iterations 2
smoothSolver:  Solving for Uy, Initial residual = 0.021229663, Final residual = 0.00073812687, No Iterations 2
smoothSolver:  Solving for Uz, Initial residual = 0.019818756, Final residual = 0.0007171538, No Iterations 2
GAMG:  Solving for p, Initial residual = 0.019249399, Final residual = 9.8531547e-05, No Iterations 4
GAMG:  Solving for p, Initial residual = 0.0018107152, Final residual = 1.0239437e-05, No Iterations 3
GAMG:  Solving for p, Initial residual = 0.00023941699, Final residual = 1.7336937e-06, No Iterations 3
GAMG:  Solving for p, Initial residual = 4.616419e-05, Final residual = 3.2146276e-07, No Iterations 3
GAMG:  Solving for p, Initial residual = 1.0937564e-05, Final residual = 7.7618907e-08, No Iterations 3
GAMG:  Solving for p, Initial residual = 2.8274267e-06, Final residual = 3.7703704e-08, No Iterations 2
time step continuity errors : sum local = 1.150133e-08, global = 5.0269969e-09, cumulative = 6.6265023e-08
smoothSolver:  Solving for omega, Initial residual = 0.001221378, Final residual = 0.00010305421, No Iterations 2
smoothSolver:  Solving for k, Initial residual = 0.004568732, Final residual = 0.00038319728, No Iterations 2
ExecutionTime = 5.46 s  ClockTime = 5 s

forceCoeffs forceCoeffs_cl execute:
    Coefficients
        Cd       : 0.05540948	(pressure: 0.040258806	viscous: 0.015150674)
        Cs       : -1.3032543e-05	(pressure: -1.335437e-05	viscous: 3.2182783e-07)
        Cl       : 0.00010710611	(pressure: 0.00010718277	viscous: -7.6658938e-08)
        CmRoll       : -7.4786159e-09	(pressure: -3.2541296e-09	viscous: -4.2244863e-09)
        CmPitch       : -6.2808427e-05	(pressure: -6.2736836e-05	viscous: -7.1591616e-08)
        CmYaw       : -9.3394056e-06	(pressure: -9.055067e-06	viscous: -2.8433864e-07)
        Cd(f)    : 0.027704733
        Cd(r)    : 0.027704748
        Cs(f)    : -1.5855677e-05
        Cs(r)    : 2.8231343e-06
        Cl(f)    : -9.2553709e-06
        Cl(r)    : 0.00011636148
forceCoeffs forceCoeffs_cd execute:
    Coefficients
        Cd       : 0.64808057	(pressure: 0.4708752	viscous: 0.17720538)
        Cs       : -0.00015243127	(pressure: -0.00015619544	viscous: 3.7641638e-06)
        Cl       : 0.0012527349	(pressure: 0.0012536315	viscous: -8.9661856e-07)
        CmRoll       : -8.7471415e-08	(pressure: -3.8060962e-08	viscous: -4.9410453e-08)
        CmPitch       : -0.00073462016	(pressure: -0.00073378281	viscous: -8.3735013e-07)
        CmYaw       : -0.00010923559	(pressure: -0.00010590991	viscous: -3.3256826e-06)
        Cd(f)    : 0.3240402
        Cd(r)    : 0.32404037
        Cs(f)    : -0.00018545123
        Cs(r)    : 3.3019954e-05
        Cl(f)    : -0.0001082527
        Cl(r)    : 0.0013609876
forces force_computation write:
    Sum of forces
        Total    : (23.513789 0.045451978 0.0055305418)
        Pressure : (17.084388 0.045484509 0.005667114)
        Viscous  : (6.4294008 -3.2531293e-05 -0.00013657214)
    Sum of moments
        Total    : (-4.760483e-06 -0.0059449612 0.039980453)
        Pressure : (-2.0714031e-06 -0.0057639666 0.039934881)
        Viscous  : (-2.6890799e-06 -0.00018099462 4.5571356e-05)


Time = 23

smoothSolver:  Solving for Ux, Initial residual = 0.0021465473, Final residual = 6.993924e-05, No Iterations 2
smoothSolver:  Solving for Uy, Initial residual = 0.019261175, Final residual = 0.00066158907, No Iterations 2
smoothSolver:  Solving for Uz, Initial residual = 0.018066603, Final residual = 0.00066121853, No Iterations 2
GAMG:  Solving for p, Initial residual = 0.015727652, Final residual = 9.1419715e-05, No Iterations 4
GAMG:  Solving for p, Initial residual = 0.001980681, Final residual = 1.3244851e-05, No Iterations 3
GAMG:  Solving for p, Initial residual = 0.00025652504, Final residual = 2.0489782e-06, No Iterations 3
GAMG:  Solving for p, Initial residual = 5.0770465e-05, Final residual = 3.4359919e-07, No Iterations 3
GAMG:  Solving for p, Initial residual = 1.2048312e-05, Final residual = 7.9439926e-08, No Iterations 3
GAMG:  Solving for p, Initial residual = 3.2592438e-06, Final residual = 3.9917931e-08, No Iterations 2
time step continuity errors : sum local = 1.0200934e-08, global = -3.246661e-09, cumulative = 6.3018362e-08
smoothSolver:  Solving for omega, Initial residual = 0.0011468625, Final residual = 9.6429804e-05, No Iterations 2
smoothSolver:  Solving for k, Initial residual = 0.0042237255, Final residual = 0.00035462548, No Iterations 2
ExecutionTime = 5.69 s  ClockTime = 5 s

forceCoeffs forceCoeffs_cl execute:
    Coefficients
        Cd       : 0.053325497	(pressure: 0.038135655	viscous: 0.015189842)
        Cs       : -4.7636402e-05	(pressure: -4.7884239e-05	viscous: 2.4783685e-07)
        Cl       : 0.00010747559	(pressure: 0.00010756356	viscous: -8.7968861e-08)
        CmRoll       : -7.1130809e-09	(pressure: -3.7954341e-09	viscous: -3.3176468e-09)
        CmPitch       : -7.2993074e-05	(pressure: -7.2930914e-05	viscous: -6.2159805e-08)
        CmYaw       : -4.9843914e-06	(pressure: -4.6862672e-06	viscous: -2.9812422e-07)
        Cd(f)    : 0.026662741
        Cd(r)    : 0.026662756
        Cs(f)    : -2.8802592e-05
        Cs(r)    : -1.883381e-05
        Cl(f)    : -1.9255278e-05
        Cl(r)    : 0.00012673087
forceCoeffs forceCoeffs_cd execute:
    Coefficients
        Cd       : 0.62370588	(pressure: 0.44604239	viscous: 0.17766348)
        Cs       : -0.00055716506	(pressure: -0.00056006381	viscous: 2.8987503e-06)
        Cl       : 0.0012570564	(pressure: 0.0012580853	viscous: -1.0289017e-06)
        CmRoll       : -8.3196043e-08	(pressure: -4.4392171e-08	viscous: -3.8803872e-08)
        CmPitch       : -0.00085374187	(pressure: -0.00085301483	viscous: -7.2703374e-07)
        CmYaw       : -5.8298458e-05	(pressure: -5.4811536e-05	viscous: -3.4869216e-06)
        Cd(f)    : 0.31185286
        Cd(r)    : 0.31185302
        Cs(f)    : -0.00033688099
        Cs(r)    : -0.00022028407
        Cl(f)    : -0.00022521365
        Cl(r)    : 0.0014822701
forces force_computation write:
    Sum of forces
        Total    : (22.629421 0.045608772 0.020215174)
        Pressure : (16.183399 0.045646103 0.020320347)
        Viscous  : (6.446022 -3.7330817e-05 -0.00010517304)
    Sum of moments
        Total    : (-4.5278031e-06 -0.0031727944 0.046463449)
        Pressure : (-2.4159684e-06 -0.0029830246 0.046423881)
        Viscous  : (-2.1118348e-06 -0.00018976978 3.9567575e-05)


Time = 24

smoothSolver:  Solving for Ux, Initial residual = 0.001930055, Final residual = 6.3056432e-05, No Iterations 2
smoothSolver:  Solving for Uy, Initial residual = 0.014961455, Final residual = 0.00051317694, No Iterations 2
smoothSolver:  Solving for Uz, Initial residual = 0.014580767, Final residual = 0.0005130466, No Iterations 2
GAMG:  Solving for p, Initial residual = 0.015008274, Final residual = 9.1841752e-05, No Iterations 4
GAMG:  Solving for p, Initial residual = 0.0029939917, Final residual = 2.0365096e-05, No Iterations 3
GAMG:  Solving for p, Initial residual = 0.00042151413, Final residual = 3.4657729e-06, No Iterations 3
GAMG:  Solving for p, Initial residual = 8.886217e-05, Final residual = 7.3029375e-07, No Iterations 3
GAMG:  Solving for p, Initial residual = 2.3064824e-05, Final residual = 1.8019193e-07, No Iterations 3
GAMG:  Solving for p, Initial residual = 6.5098649e-06, Final residual = 5.1508921e-08, No Iterations 3
time step continuity errors : sum local = 8.8674704e-09, global = -2.3532242e-09, cumulative = 6.0665138e-08
smoothSolver:  Solving for omega, Initial residual = 0.0010788733, Final residual = 9.0543217e-05, No Iterations 2
smoothSolver:  Solving for k, Initial residual = 0.0039242537, Final residual = 0.00032956196, No Iterations 2
ExecutionTime = 5.92 s  ClockTime = 6 s

forceCoeffs forceCoeffs_cl execute:
    Coefficients
        Cd       : 0.04345412	(pressure: 0.028239019	viscous: 0.0152151)
        Cs       : -7.0779869e-05	(pressure: -7.0930976e-05	viscous: 1.5110675e-07)
        Cl       : 0.00017031654	(pressure: 0.00017039085	viscous: -7.4305447e-08)
        CmRoll       : -7.9332564e-09	(pressure: -4.0269427e-09	viscous: -3.9063137e-09)
        CmPitch       : -8.1960678e-05	(pressure: -8.1899996e-05	viscous: -6.0682688e-08)
        CmYaw       : -3.9055428e-06	(pressure: -3.5839202e-06	viscous: -3.2162261e-07)
        Cd(f)    : 0.021727052
        Cd(r)    : 0.021727068
        Cs(f)    : -3.9295478e-05
        Cs(r)    : -3.1484392e-05
        Cl(f)    : 3.1975923e-06
        Cl(r)    : 0.00016711895
forceCoeffs forceCoeffs_cd execute:
    Coefficients
        Cd       : 0.50824823	(pressure: 0.33028932	viscous: 0.17795891)
[...]
GAMG:  Solving for p, Initial residual = 3.0810426e-06, Final residual = 4.9542832e-08, No Iterations 2
GAMG:  Solving for p, Initial residual = 6.3808196e-07, Final residual = 4.0212412e-08, No Iterations 1
GAMG:  Solving for p, Initial residual = 1.4628313e-07, Final residual = 1.8830682e-08, No Iterations 1
GAMG:  Solving for p, Initial residual = 5.0901918e-08, Final residual = 5.0901918e-08, No Iterations 0
time step continuity errors : sum local = 7.411361e-09, global = 2.0300185e-10, cumulative = 2.8900637e-09
smoothSolver:  Solving for omega, Initial residual = 2.5210137e-06, Final residual = 1.859811e-07, No Iterations 2
smoothSolver:  Solving for k, Initial residual = 3.2620288e-05, Final residual = 2.092349e-06, No Iterations 2
ExecutionTime = 60.13 s  ClockTime = 60 s

forceCoeffs forceCoeffs_cl execute:
    Coefficients
        Cd       : 0.02766419	(pressure: 0.015806907	viscous: 0.011857283)
        Cs       : -0.0019805311	(pressure: -0.0019676676	viscous: -1.2863501e-05)
        Cl       : 0.0048781061	(pressure: 0.0048467172	viscous: 3.1388935e-05)
        CmRoll       : -2.0105263e-08	(pressure: 2.9270442e-09	viscous: -2.3032307e-08)
        CmPitch       : -0.001867597	(pressure: -0.0018554117	viscous: -1.2185314e-05)
        CmYaw       : -0.00076063666	(pressure: -0.00075551638	viscous: -5.1202816e-06)
        Cd(f)    : 0.013832075
        Cd(r)    : 0.013832115
        Cs(f)    : -0.0017509022
        Cs(r)    : -0.00022962889
        Cl(f)    : 0.00057145604
        Cl(r)    : 0.0043066501
forceCoeffs forceCoeffs_cd execute:
    Coefficients
        Cd       : 0.32356601	(pressure: 0.18488081	viscous: 0.1386852)
        Cs       : -0.023164695	(pressure: -0.023014241	viscous: -0.00015045413)
        Cl       : 0.057055323	(pressure: 0.056688192	viscous: 0.00036713138)
        CmRoll       : -2.3515525e-07	(pressure: 3.4235306e-08	viscous: -2.6939055e-07)
        CmPitch       : -0.021843795	(pressure: -0.021701273	viscous: -0.00014252192)
        CmYaw       : -0.0088965614	(pressure: -0.0088366735	viscous: -5.9887856e-05)
        Cd(f)    : 0.16178277
        Cd(r)    : 0.16178324
        Cs(f)    : -0.020478909
        Cs(r)    : -0.0026857863
        Cl(f)    : 0.0066838663
        Cl(r)    : 0.050371457
forces force_computation write:
    Sum of forces
        Total    : (11.739686 2.0700926 0.84046609)
        Pressure : (6.7078823 2.0567723 0.83500729)
        Viscous  : (5.0318042 0.013320334 0.0054588066)
    Sum of moments
        Total    : (-1.2797924e-05 -0.48418022 1.1888114)
        Pressure : (1.8631983e-06 -0.48092093 1.1810549)
        Viscous  : (-1.4661123e-05 -0.0032592947 0.007756513)


Time = 285

smoothSolver:  Solving for Ux, Initial residual = 1.0619879e-05, Final residual = 3.3686034e-07, No Iterations 2
smoothSolver:  Solving for Uy, Initial residual = 0.00012806455, Final residual = 4.1020817e-06, No Iterations 2
smoothSolver:  Solving for Uz, Initial residual = 0.00015488837, Final residual = 4.8065058e-06, No Iterations 2
GAMG:  Solving for p, Initial residual = 0.00014104537, Final residual = 1.3336647e-06, No Iterations 3
GAMG:  Solving for p, Initial residual = 2.0433397e-05, Final residual = 1.4030552e-07, No Iterations 3
GAMG:  Solving for p, Initial residual = 3.0849701e-06, Final residual = 4.9994867e-08, No Iterations 2
GAMG:  Solving for p, Initial residual = 6.2888775e-07, Final residual = 4.0485438e-08, No Iterations 1
GAMG:  Solving for p, Initial residual = 1.4489918e-07, Final residual = 1.8962961e-08, No Iterations 1
GAMG:  Solving for p, Initial residual = 5.0688277e-08, Final residual = 5.0688277e-08, No Iterations 0
time step continuity errors : sum local = 7.3763642e-09, global = 2.3201734e-10, cumulative = 3.1220811e-09
smoothSolver:  Solving for omega, Initial residual = 2.4978485e-06, Final residual = 1.8375159e-07, No Iterations 2
smoothSolver:  Solving for k, Initial residual = 3.2069135e-05, Final residual = 2.052316e-06, No Iterations 2
ExecutionTime = 60.31 s  ClockTime = 60 s

forceCoeffs forceCoeffs_cl execute:
    Coefficients
        Cd       : 0.027659546	(pressure: 0.015803007	viscous: 0.011856539)
        Cs       : -0.0019903182	(pressure: -0.0019774099	viscous: -1.2908295e-05)
        Cl       : 0.0048763166	(pressure: 0.0048449796	viscous: 3.1336998e-05)
        CmRoll       : -2.0084739e-08	(pressure: 2.9546378e-09	viscous: -2.3039377e-08)
        CmPitch       : -0.0018669564	(pressure: -0.0018547913	viscous: -1.2165116e-05)
        CmYaw       : -0.00076439113	(pressure: -0.0007592536	viscous: -5.1375236e-06)
        Cd(f)    : 0.013829753
        Cd(r)    : 0.013829793
        Cs(f)    : -0.0017595502
        Cs(r)    : -0.00023076796
        Cl(f)    : 0.00057120188
        Cl(r)    : 0.0043051147
forceCoeffs forceCoeffs_cd execute:
    Coefficients
        Cd       : 0.32351169	(pressure: 0.18483519	viscous: 0.1386765)
        Cs       : -0.023279167	(pressure: -0.023128189	viscous: -0.00015097804)
        Cl       : 0.057034392	(pressure: 0.056667868	viscous: 0.00036652391)
        CmRoll       : -2.349152e-07	(pressure: 3.4558045e-08	viscous: -2.6947325e-07)
        CmPitch       : -0.021836303	(pressure: -0.021694017	viscous: -0.00014228567)
        CmYaw       : -0.0089404744	(pressure: -0.0088803849	viscous: -6.0089522e-05)
        Cd(f)    : 0.16175561
        Cd(r)    : 0.16175608
        Cs(f)    : -0.020580058
        Cs(r)    : -0.0026991091
        Cl(f)    : 0.0066808935
        Cl(r)    : 0.050353499
forces force_computation write:
    Sum of forces
        Total    : (11.737716 2.0693332 0.84461938)
        Pressure : (6.7062273 2.0560349 0.83914156)
        Viscous  : (5.0314883 0.013298294 0.0054778155)
    Sum of moments
        Total    : (-1.278486e-05 -0.48657011 1.1884036)
        Pressure : (1.8807628e-06 -0.48329984 1.18066)
        Viscous  : (-1.4665623e-05 -0.00327027 0.0077436556)


Time = 286

smoothSolver:  Solving for Ux, Initial residual = 1.0485976e-05, Final residual = 3.364367e-07, No Iterations 2
smoothSolver:  Solving for Uy, Initial residual = 0.00012851296, Final residual = 4.1047384e-06, No Iterations 2
smoothSolver:  Solving for Uz, Initial residual = 0.00015585842, Final residual = 4.7708127e-06, No Iterations 2
GAMG:  Solving for p, Initial residual = 0.00014226687, Final residual = 1.3228461e-06, No Iterations 3
GAMG:  Solving for p, Initial residual = 2.0362374e-05, Final residual = 1.4114543e-07, No Iterations 3
GAMG:  Solving for p, Initial residual = 3.0726282e-06, Final residual = 5.0095745e-08, No Iterations 2
GAMG:  Solving for p, Initial residual = 6.2905118e-07, Final residual = 4.055949e-08, No Iterations 1
GAMG:  Solving for p, Initial residual = 1.4472214e-07, Final residual = 1.9016371e-08, No Iterations 1
GAMG:  Solving for p, Initial residual = 5.0843071e-08, Final residual = 5.0843071e-08, No Iterations 0
time step continuity errors : sum local = 7.394962e-09, global = 2.2936808e-10, cumulative = 3.3514491e-09
smoothSolver:  Solving for omega, Initial residual = 2.4730852e-06, Final residual = 1.8141267e-07, No Iterations 2
smoothSolver:  Solving for k, Initial residual = 3.1513523e-05, Final residual = 2.0128631e-06, No Iterations 2
ExecutionTime = 60.5 s  ClockTime = 60 s

forceCoeffs forceCoeffs_cl execute:
    Coefficients
        Cd       : 0.027655028	(pressure: 0.015799223	viscous: 0.011855805)
        Cs       : -0.002000235	(pressure: -0.001987281	viscous: -1.2953992e-05)
        Cl       : 0.0048753401	(pressure: 0.0048440527	viscous: 3.1287342e-05)
        CmRoll       : -2.0081005e-08	(pressure: 2.9805162e-09	viscous: -2.3061521e-08)
        CmPitch       : -0.001866627	(pressure: -0.0018544812	viscous: -1.214578e-05)
        CmYaw       : -0.00076819748	(pressure: -0.00076304238	viscous: -5.1550993e-06)
        Cd(f)    : 0.013827494
        Cd(r)    : 0.013827534
        Cs(f)    : -0.001768315
        Cs(r)    : -0.00023192
        Cl(f)    : 0.00057104307
        Cl(r)    : 0.004304297
forceCoeffs forceCoeffs_cd execute:
    Coefficients
        Cd       : 0.32345885	(pressure: 0.18479093	viscous: 0.13866791)
        Cs       : -0.023395156	(pressure: -0.023243643	viscous: -0.00015151253)
        Cl       : 0.057022971	(pressure: 0.056657028	viscous: 0.00036594313)
        CmRoll       : -2.3487153e-07	(pressure: 3.4860724e-08	viscous: -2.6973225e-07)
        CmPitch       : -0.021832449	(pressure: -0.02169039	viscous: -0.00014205952)
        CmYaw       : -0.0089849943	(pressure: -0.0089246992	viscous: -6.0295092e-05)
        Cd(f)    : 0.16172919
        Cd(r)    : 0.16172966
        Cs(f)    : -0.020682572
        Cs(r)    : -0.0027125836
        Cl(f)    : 0.0066790361
        Cl(r)    : 0.050343935
forces force_computation write:
    Sum of forces
        Total    : (11.735798 2.0689188 0.84882771)
        Pressure : (6.7046215 2.0556416 0.8433305)
        Viscous  : (5.0311768 0.013277222 0.0054972077)
    Sum of moments
        Total    : (-1.2782483e-05 -0.48899303 1.1881939)
        Pressure : (1.8972356e-06 -0.48571157 1.1804626)
        Viscous  : (-1.4679719e-05 -0.0032814578 0.0077313477)


Time = 287

smoothSolver:  Solving for Ux, Initial residual = 1.0367854e-05, Final residual = 3.3529586e-07, No Iterations 2
smoothSolver:  Solving for Uy, Initial residual = 0.0001287422, Final residual = 4.093083e-06, No Iterations 2
smoothSolver:  Solving for Uz, Initial residual = 0.00015630371, Final residual = 4.7264925e-06, No Iterations 2
GAMG:  Solving for p, Initial residual = 0.0001433978, Final residual = 1.310625e-06, No Iterations 3
GAMG:  Solving for p, Initial residual = 2.035954e-05, Final residual = 1.4223153e-07, No Iterations 3
GAMG:  Solving for p, Initial residual = 3.0512834e-06, Final residual = 5.0195737e-08, No Iterations 2
GAMG:  Solving for p, Initial residual = 6.2763991e-07, Final residual = 4.0598106e-08, No Iterations 1
GAMG:  Solving for p, Initial residual = 1.4418954e-07, Final residual = 1.9113082e-08, No Iterations 1
GAMG:  Solving for p, Initial residual = 5.0884095e-08, Final residual = 5.0884095e-08, No Iterations 0
time step continuity errors : sum local = 7.3969689e-09, global = 2.3581276e-10, cumulative = 3.5872619e-09
smoothSolver:  Solving for omega, Initial residual = 2.4473359e-06, Final residual = 1.7894615e-07, No Iterations 2
smoothSolver:  Solving for k, Initial residual = 3.0966459e-05, Final residual = 1.9732847e-06, No Iterations 2
ExecutionTime = 60.68 s  ClockTime = 60 s

forceCoeffs forceCoeffs_cl execute:
    Coefficients
        Cd       : 0.027650647	(pressure: 0.015795566	viscous: 0.011855082)
        Cs       : -0.0020102904	(pressure: -0.0019972897	viscous: -1.3000674e-05)
        Cl       : 0.0048752057	(pressure: 0.0048439652	viscous: 3.1240526e-05)
        CmRoll       : -2.0086602e-08	(pressure: 3.0068848e-09	viscous: -2.3093487e-08)
        CmPitch       : -0.0018666184	(pressure: -0.0018544909	viscous: -1.2127542e-05)
        CmYaw       : -0.0007720589	(pressure: -0.00076688585	viscous: -5.1730486e-06)
        Cd(f)    : 0.013825304
        Cd(r)    : 0.013825344
        Cs(f)    : -0.0017772041
        Cs(r)    : -0.00023308628
        Cl(f)    : 0.00057098444
        Cl(r)    : 0.0043042213
forceCoeffs forceCoeffs_cd execute:
    Coefficients
        Cd       : 0.32340761	(pressure: 0.18474815	viscous: 0.13865945)
        Cs       : -0.023512766	(pressure: -0.023360707	viscous: -0.00015205853)
        Cl       : 0.0570214	(pressure: 0.056656004	viscous: 0.00036539555)
        CmRoll       : -2.3493699e-07	(pressure: 3.5169137e-08	viscous: -2.7010613e-07)
        CmPitch       : -0.021832349	(pressure: -0.021690503	viscous: -0.0001418462)
        CmYaw       : -0.0090301582	(pressure: -0.0089696532	viscous: -6.050503e-05)
        Cd(f)    : 0.16170357
        Cd(r)    : 0.16170404
        Cs(f)    : -0.020786541
        Cs(r)    : -0.0027262246
        Cl(f)    : 0.0066783504
        Cl(r)    : 0.050343049
forces force_computation write:
    Sum of forces
        Total    : (11.733939 2.0688618 0.85309485)
        Pressure : (6.7030694 2.0556044 0.84757784)
        Viscous  : (5.0308699 0.013257354 0.0055170181)
    Sum of moments
        Total    : (-1.2786046e-05 -0.491451 1.1881885)
        Pressure : (1.9140205e-06 -0.48815812 1.1804687)
        Viscous  : (-1.4700067e-05 -0.0032928833 0.007719738)


Time = 288

smoothSolver:  Solving for Ux, Initial residual = 1.0262223e-05, Final residual = 3.3338461e-07, No Iterations 2
smoothSolver:  Solving for Uy, Initial residual = 0.00012882603, Final residual = 4.0636031e-06, No Iterations 2
smoothSolver:  Solving for Uz, Initial residual = 0.0001564088, Final residual = 4.6755827e-06, No Iterations 2
GAMG:  Solving for p, Initial residual = 0.0001444387, Final residual = 1.2983439e-06, No Iterations 3
GAMG:  Solving for p, Initial residual = 2.0326351e-05, Final residual = 1.4368388e-07, No Iterations 3
GAMG:  Solving for p, Initial residual = 3.0580218e-06, Final residual = 5.0586751e-08, No Iterations 2
GAMG:  Solving for p, Initial residual = 6.2817937e-07, Final residual = 4.0756726e-08, No Iterations 1
GAMG:  Solving for p, Initial residual = 1.4479068e-07, Final residual = 1.9159685e-08, No Iterations 1
GAMG:  Solving for p, Initial residual = 5.0918388e-08, Final residual = 5.0918388e-08, No Iterations 0
time step continuity errors : sum local = 7.3979972e-09, global = 2.6072193e-10, cumulative = 3.8479838e-09
smoothSolver:  Solving for omega, Initial residual = 2.4206564e-06, Final residual = 1.7637143e-07, No Iterations 2
smoothSolver:  Solving for k, Initial residual = 3.0404218e-05, Final residual = 1.9343494e-06, No Iterations 2
ExecutionTime = 60.87 s  ClockTime = 61 s

forceCoeffs forceCoeffs_cl execute:
    Coefficients
        Cd       : 0.027646416	(pressure: 0.015792046	viscous: 0.011854369)
        Cs       : -0.0020205005	(pressure: -0.0020074522	viscous: -1.3048224e-05)
        Cl       : 0.0048759463	(pressure: 0.0048447496	viscous: 3.1196727e-05)
        CmRoll       : -2.0103207e-08	(pressure: 3.0316135e-09	viscous: -2.313482e-08)
        CmPitch       : -0.0018669426	(pressure: -0.0018548321	viscous: -1.2110472e-05)
        CmYaw       : -0.00077598149	(pressure: -0.00077079017	viscous: -5.1913216e-06)
        Cd(f)    : 0.013823188
        Cd(r)    : 0.013823228
        Cs(f)    : -0.0017862317
        Cs(r)    : -0.00023426874
        Cl(f)    : 0.00057103055
        Cl(r)    : 0.0043049158
forceCoeffs forceCoeffs_cd execute:
    Coefficients
        Cd       : 0.32335811	(pressure: 0.18470699	viscous: 0.13865112)
        Cs       : -0.023632185	(pressure: -0.02347957	viscous: -0.00015261469)
        Cl       : 0.057030061	(pressure: 0.056665178	viscous: 0.00036488328)
        CmRoll       : -2.351312e-07	(pressure: 3.5458369e-08	viscous: -2.7058957e-07)
        CmPitch       : -0.021836141	(pressure: -0.021694494	viscous: -0.00014164655)
        CmYaw       : -0.0090760377	(pressure: -0.0090153189	viscous: -6.0718755e-05)
        Cd(f)    : 0.16167882
        Cd(r)    : 0.16167929
        Cs(f)    : -0.02089213
        Cs(r)    : -0.0027400549
        Cl(f)    : 0.0066788897
        Cl(r)    : 0.050351172
forces force_computation write:
    Sum of forces
        Total    : (11.732144 2.0691761 0.85742765)
        Pressure : (6.7015759 2.0559373 0.85189045)
        Viscous  : (5.0305676 0.013238768 0.0055371966)
    Sum of moments
        Total    : (-1.2796616e-05 -0.49394791 1.1883948)
        Pressure : (1.9297614e-06 -0.4906434 1.180686)
        Viscous  : (-1.4726377e-05 -0.003304515 0.0077088724)


Time = 289

smoothSolver:  Solving for Ux, Initial residual = 1.0163612e-05, Final residual = 3.3096108e-07, No Iterations 2
smoothSolver:  Solving for Uy, Initial residual = 0.00012876577, Final residual = 4.0158685e-06, No Iterations 2
smoothSolver:  Solving for Uz, Initial residual = 0.0001561056, Final residual = 4.6177696e-06, No Iterations 2
GAMG:  Solving for p, Initial residual = 0.00014516511, Final residual = 1.287048e-06, No Iterations 3
GAMG:  Solving for p, Initial residual = 2.022169e-05, Final residual = 1.4540288e-07, No Iterations 3
GAMG:  Solving for p, Initial residual = 3.0586398e-06, Final residual = 4.9667057e-08, No Iterations 2
GAMG:  Solving for p, Initial residual = 6.2518198e-07, Final residual = 4.0575583e-08, No Iterations 1
GAMG:  Solving for p, Initial residual = 1.4406607e-07, Final residual = 1.9405055e-08, No Iterations 1
GAMG:  Solving for p, Initial residual = 5.1052319e-08, Final residual = 5.1052319e-08, No Iterations 0
time step continuity errors : sum local = 7.4134957e-09, global = 3.0401792e-10, cumulative = 4.1520017e-09
smoothSolver:  Solving for omega, Initial residual = 2.3927545e-06, Final residual = 1.7370011e-07, No Iterations 2
smoothSolver:  Solving for k, Initial residual = 2.9830196e-05, Final residual = 1.894392e-06, No Iterations 2
ExecutionTime = 61.06 s  ClockTime = 61 s

forceCoeffs forceCoeffs_cl execute:
    Coefficients
        Cd       : 0.027642355	(pressure: 0.015788686	viscous: 0.011853669)
        Cs       : -0.0020308876	(pressure: -0.0020177908	viscous: -1.309683e-05)
        Cl       : 0.0048775646	(pressure: 0.0048464081	viscous: 3.1156444e-05)
        CmRoll       : -2.0125044e-08	(pressure: 3.0572674e-09	viscous: -2.3182311e-08)
        CmPitch       : -0.0018675995	(pressure: -0.0018555048	viscous: -1.2094782e-05)
        CmYaw       : -0.00077997351	(pressure: -0.00077476351	viscous: -5.2100003e-06)
        Cd(f)    : 0.013821157
        Cd(r)    : 0.013821198
        Cs(f)    : -0.0017954173
        Cs(r)    : -0.0002354703
        Cl(f)    : 0.00057118274
        Cl(r)    : 0.0043063818
forceCoeffs forceCoeffs_cd execute:
    Coefficients
        Cd       : 0.32331062	(pressure: 0.18466769	viscous: 0.13864292)
        Cs       : -0.023753675	(pressure: -0.023600492	viscous: -0.00015318319)
        Cl       : 0.057048989	(pressure: 0.056684577	viscous: 0.00036441212)
        CmRoll       : -2.3538661e-07	(pressure: 3.5758423e-08	viscous: -2.7114503e-07)
        CmPitch       : -0.021843825	(pressure: -0.021702362	viscous: -0.00014146303)
        CmYaw       : -0.009122729	(pressure: -0.0090617918	viscous: -6.0937225e-05)
        Cd(f)    : 0.16165507
        Cd(r)    : 0.16165554
        Cs(f)    : -0.020999567
        Cs(r)    : -0.0027541086
        Cl(f)    : 0.0066806697
        Cl(r)    : 0.050368319
forces force_computation write:
    Sum of forces
        Total    : (11.73042 2.0698628 0.86183558)
        Pressure : (6.7001501 2.0566411 0.85627776)
        Viscous  : (5.0302702 0.013221673 0.0055578231)
    Sum of moments
        Total    : (-1.2810516e-05 -0.49648901 1.188813)
        Pressure : (1.9460913e-06 -0.49317261 1.1811141)
        Viscous  : (-1.4756607e-05 -0.0033164048 0.007698885)


Time = 290

smoothSolver:  Solving for Ux, Initial residual = 1.0068825e-05, Final residual = 3.2801108e-07, No Iterations 2
smoothSolver:  Solving for Uy, Initial residual = 0.00012842477, Final residual = 3.9510303e-06, No Iterations 2
smoothSolver:  Solving for Uz, Initial residual = 0.00015546587, Final residual = 4.5555714e-06, No Iterations 2
GAMG:  Solving for p, Initial residual = 0.00014540992, Final residual = 1.2775703e-06, No Iterations 3
GAMG:  Solving for p, Initial residual = 2.0042692e-05, Final residual = 1.4708297e-07, No Iterations 3
GAMG:  Solving for p, Initial residual = 3.0447725e-06, Final residual = 5.0576347e-08, No Iterations 2
GAMG:  Solving for p, Initial residual = 6.2456134e-07, Final residual = 4.069413e-08, No Iterations 1
GAMG:  Solving for p, Initial residual = 1.4427602e-07, Final residual = 1.9673461e-08, No Iterations 1
GAMG:  Solving for p, Initial residual = 5.145035e-08, Final residual = 5.145035e-08, No Iterations 0
time step continuity errors : sum local = 7.4673291e-09, global = 3.2963502e-10, cumulative = 4.4816368e-09
