/*---------------------------------------------------------------------------*\
| =========                 |                                                 |
| \\      /  F ield         | OpenFOAM: The Open Source CFD Toolbox           |
|  \\    /   O peration     | Version:  2112                                  |
|   \\  /    A nd           | Website:  www.openfoam.com                      |
|    \\/     M anipulation  |                                                 |
\*---------------------------------------------------------------------------*/
Build  : _d44c8318-20220111 OPENFOAM=2112 version=2112
Arch   : "LSB;label=32;scalar=64"
Exec   : simpleFoam -parallel -decomposeParDict system/decomposeParDict.6
Date   : Jun 22 2022
Time   : 22:13:00
Host   : cf438617a2de
PID    : 544
I/O    : uncollated
Case   : /home/aimed_user/dexof_work/dir_rough_mesh_8cores_swordfish1_aoa_0
nProcs : 8
Hosts  :
(
    (cf438617a2de 8)
)
Pstream initialized with:
    floatTransfer      : 0
    nProcsSimpleSum    : 0
    commsType          : nonBlocking
    polling iterations : 0
trapFpe: Floating point exception trapping enabled (FOAM_SIGFPE).
fileModificationChecking : Monitoring run-time modified files using timeStampMaster (fileModificationSkew 5, maxFileModificationPolls 20)
allowSystemOperations : Allowing user-supplied system call operations

// * * * * * * * * * * * * * * * * * * * * * * * * * * * * * * * * * * * * * //
Create time

Create mesh for time = 0


SIMPLE: convergence criteria
    field p	 tolerance 0.0001
    field U	 tolerance 0.0001
    field "(k|epsilon|omega|f|v2|nuTilda)"	 tolerance 0.0001

Reading field p

Reading field U

Reading/calculating face flux field phi

Selecting incompressible transport model Newtonian
Selecting turbulence model type RAS
Selecting RAS turbulence model kOmegaSST
Selecting patchDistMethod meshWave
RAS
{
    RASModel        kOmegaSST;
    turbulence      on;
    printCoeffs     on;
    alphaK1         0.85;
    alphaK2         1;
    alphaOmega1     0.5;
    alphaOmega2     0.856;
    gamma1          0.55555556;
    gamma2          0.44;
    beta1           0.075;
    beta2           0.0828;
    betaStar        0.09;
    a1              0.31;
    b1              1;
    c1              10;
    F3              false;
    decayControl    false;
    kInf            0;
    omegaInf        0;
}

No MRF models present

No finite volume options present

Starting time loop

forceCoeffs forceCoeffs_cl:
    p: p
    U: U
    rho: rhoInf
    Freestream density (rhoInf) set to 1027
    Not including porosity effects
    Fields will be written

forceCoeffs forceCoeffs_cd:
    p: p
    U: U
    rho: rhoInf
    Freestream density (rhoInf) set to 1027
    Not including porosity effects

forces force_computation:
    p: p
    U: U
    rho: rhoInf
    Freestream density (rhoInf) set to 1027
    Not including porosity effects

Time = 1

smoothSolver:  Solving for Ux, Initial residual = 1, Final residual = 0.035510813, No Iterations 2
smoothSolver:  Solving for Uy, Initial residual = 1, Final residual = 0.049423636, No Iterations 2
smoothSolver:  Solving for Uz, Initial residual = 1, Final residual = 0.051506893, No Iterations 2
GAMG:  Solving for p, Initial residual = 1, Final residual = 0.0062191809, No Iterations 7
GAMG:  Solving for p, Initial residual = 0.026833461, Final residual = 0.00011633144, No Iterations 3
GAMG:  Solving for p, Initial residual = 0.0029656406, Final residual = 1.25966e-05, No Iterations 3
GAMG:  Solving for p, Initial residual = 0.00054327973, Final residual = 3.3914298e-06, No Iterations 3
GAMG:  Solving for p, Initial residual = 0.00013816834, Final residual = 8.3707887e-07, No Iterations 3
GAMG:  Solving for p, Initial residual = 3.9299112e-05, Final residual = 2.7933403e-07, No Iterations 3
time step continuity errors : sum local = 1.9673484e-07, global = 7.7288139e-09, cumulative = 7.7288139e-09
smoothSolver:  Solving for omega, Initial residual = 0.024878819, Final residual = 0.00091374533, No Iterations 2
smoothSolver:  Solving for k, Initial residual = 1, Final residual = 0.037123487, No Iterations 2
ExecutionTime = 0.51 s  ClockTime = 0 s

forceCoeffs forceCoeffs_cl execute:
    Coefficients
        Cd       : 0.17141599	(pressure: 0.15765027	viscous: 0.013765712)
        Cs       : -0.00062221874	(pressure: -0.00062202194	viscous: -1.9680285e-07)
        Cl       : -0.0013720676	(pressure: -0.001371758	viscous: -3.0955364e-07)
        CmRoll       : -6.1688832e-10	(pressure: -6.5084381e-10	viscous: 3.3955491e-11)
        CmPitch       : 0.00067154747	(pressure: 0.00067144312	viscous: 1.0434369e-07)
        CmYaw       : -0.00031593507	(pressure: -0.00031583853	viscous: -9.6545019e-08)
        Cd(f)    : 0.085707992
        Cd(r)    : 0.085707994
        Cs(f)    : -0.00062704444
        Cs(r)    : 4.8256994e-06
        Cl(f)    : -1.4486333e-05
        Cl(r)    : -0.0013575813
forceCoeffs forceCoeffs_cd execute:
    Coefficients
        Cd       : 4.3097148	(pressure: 3.9636194	viscous: 0.34609545)
        Cs       : -0.01564373	(pressure: -0.015638782	viscous: -4.9479876e-06)
        Cl       : -0.034496316	(pressure: -0.034488534	viscous: -7.7827509e-06)
        CmRoll       : -1.5509713e-08	(pressure: -1.6363417e-08	viscous: 8.5370382e-10)
        CmPitch       : 0.016883945	(pressure: 0.016881322	viscous: 2.6233934e-06)
        CmYaw       : -0.0079431918	(pressure: -0.0079407645	viscous: -2.4273203e-06)
        Cd(f)    : 2.1548574
        Cd(r)    : 2.1548574
        Cs(f)    : -0.015765057
        Cs(r)    : 0.000121327
        Cl(f)    : -0.00036421319
        Cl(r)    : -0.034132103
forces force_computation write:
    Sum of forces
        Total    : (18.967208 -0.15181951 0.068848609)
        Pressure : (17.444029 -0.15178526 0.068826833)
        Viscous  : (1.5231783 -3.4252163e-05 2.1776269e-05)
    Sum of moments
        Total    : (-7.5575607e-08 -0.038705523 -0.082271954)
        Pressure : (-7.9735529e-08 -0.038693695 -0.082259171)
        Viscous  : (4.1599213e-09 -1.1827827e-05 -1.2783251e-05)


Time = 2

smoothSolver:  Solving for Ux, Initial residual = 0.24636916, Final residual = 0.0088397618, No Iterations 2
smoothSolver:  Solving for Uy, Initial residual = 0.54287538, Final residual = 0.018757303, No Iterations 2
smoothSolver:  Solving for Uz, Initial residual = 0.54436128, Final residual = 0.019246304, No Iterations 2
GAMG:  Solving for p, Initial residual = 0.087046714, Final residual = 0.00082491295, No Iterations 4
GAMG:  Solving for p, Initial residual = 0.034654244, Final residual = 0.0002835728, No Iterations 3
GAMG:  Solving for p, Initial residual = 0.0042506226, Final residual = 4.0911314e-05, No Iterations 3
GAMG:  Solving for p, Initial residual = 0.00079140279, Final residual = 7.7071239e-06, No Iterations 3
GAMG:  Solving for p, Initial residual = 0.00018215827, Final residual = 1.7757084e-06, No Iterations 3
GAMG:  Solving for p, Initial residual = 4.7159897e-05, Final residual = 4.3739427e-07, No Iterations 3
time step continuity errors : sum local = 4.8363361e-08, global = 1.0350547e-08, cumulative = 1.807936e-08
smoothSolver:  Solving for omega, Initial residual = 0.018131515, Final residual = 0.00074746759, No Iterations 2
smoothSolver:  Solving for k, Initial residual = 0.29628218, Final residual = 0.012238586, No Iterations 2
ExecutionTime = 0.85 s  ClockTime = 1 s

forceCoeffs forceCoeffs_cl execute:
    Coefficients
        Cd       : 0.16333679	(pressure: 0.14916812	viscous: 0.01416867)
        Cs       : -0.00045270582	(pressure: -0.00045263321	viscous: -7.2608891e-08)
        Cl       : -0.0010818541	(pressure: -0.0010822071	viscous: 3.5297947e-07)
        CmRoll       : 1.3345597e-10	(pressure: -5.905819e-11	viscous: 1.9251416e-10)
        CmPitch       : 0.00057451252	(pressure: 0.00057464515	viscous: -1.3262361e-07)
        CmYaw       : -0.00022109482	(pressure: -0.0002208328	viscous: -2.620168e-07)
        Cd(f)    : 0.081668396
        Cd(r)    : 0.081668396
        Cs(f)    : -0.00044744773
        Cs(r)    : -5.2580912e-06
        Cl(f)    : 3.3585468e-05
        Cl(r)    : -0.0011154396
forceCoeffs forceCoeffs_cd execute:
    Coefficients
        Cd       : 4.1065889	(pressure: 3.7503624	viscous: 0.35622655)
        Cs       : -0.011381861	(pressure: -0.011380036	viscous: -1.8255218e-06)
        Cl       : -0.027199813	(pressure: -0.027208687	viscous: 8.8745564e-06)
        CmRoll       : 3.3553298e-09	(pressure: -1.4848321e-09	viscous: 4.8401619e-09)
        CmPitch       : 0.014444307	(pressure: 0.014447641	viscous: -3.3344028e-06)
        CmYaw       : -0.0055587325	(pressure: -0.0055521449	viscous: -6.5875867e-06)
        Cd(f)    : 2.0532945
        Cd(r)    : 2.0532945
        Cs(f)    : -0.011249663
        Cs(r)    : -0.00013219814
        Cl(f)    : 0.00084440075
        Cl(r)    : -0.028044213
forces force_computation write:
    Sum of forces
        Total    : (18.073244 -0.11970734 0.050091975)
        Pressure : (16.505478 -0.1197464 0.050083941)
        Viscous  : (1.5677657 3.9057238e-05 8.034186e-06)
    Sum of moments
        Total    : (1.6349825e-08 -0.027086548 -0.070384106)
        Pressure : (-7.2352782e-09 -0.027054448 -0.070400354)
        Viscous  : (2.3585103e-08 -3.2099941e-05 1.6247852e-05)


Time = 3

smoothSolver:  Solving for Ux, Initial residual = 0.077180343, Final residual = 0.0027348171, No Iterations 2
smoothSolver:  Solving for Uy, Initial residual = 0.25312749, Final residual = 0.0086290554, No Iterations 2
smoothSolver:  Solving for Uz, Initial residual = 0.25467652, Final residual = 0.008865204, No Iterations 2
GAMG:  Solving for p, Initial residual = 0.17955327, Final residual = 0.001536608, No Iterations 5
GAMG:  Solving for p, Initial residual = 0.018069103, Final residual = 9.774746e-05, No Iterations 3
GAMG:  Solving for p, Initial residual = 0.0023736829, Final residual = 1.5495676e-05, No Iterations 3
GAMG:  Solving for p, Initial residual = 0.00048616292, Final residual = 4.479889e-06, No Iterations 3
GAMG:  Solving for p, Initial residual = 0.000136225, Final residual = 1.1561645e-06, No Iterations 3
GAMG:  Solving for p, Initial residual = 4.0418167e-05, Final residual = 3.8060272e-07, No Iterations 3
time step continuity errors : sum local = 2.8962621e-07, global = -4.0860638e-09, cumulative = 1.3993297e-08
smoothSolver:  Solving for omega, Initial residual = 0.013904428, Final residual = 0.00063308099, No Iterations 2
smoothSolver:  Solving for k, Initial residual = 0.16018039, Final residual = 0.0072169668, No Iterations 2
ExecutionTime = 1.18 s  ClockTime = 1 s

forceCoeffs forceCoeffs_cl execute:
    Coefficients
        Cd       : 0.055561815	(pressure: 0.041015413	viscous: 0.014546403)
        Cs       : 9.7944714e-06	(pressure: 9.7370204e-06	viscous: 5.7451036e-08)
        Cl       : -9.3992775e-05	(pressure: -9.4823237e-05	viscous: 8.3046201e-07)
        CmRoll       : 1.5647921e-09	(pressure: 1.1622021e-09	viscous: 4.0259002e-10)
        CmPitch       : 9.7830127e-05	(pressure: 9.8091971e-05	viscous: -2.6184464e-07)
        CmYaw       : 1.8573924e-05	(pressure: 1.8838163e-05	viscous: -2.6423956e-07)
        Cd(f)    : 0.027780909
        Cd(r)    : 0.027780906
        Cs(f)    : 2.347116e-05
        Cs(r)    : -1.3676688e-05
        Cl(f)    : 5.0833739e-05
        Cl(r)    : -0.00014482651
forceCoeffs forceCoeffs_cd execute:
    Coefficients
        Cd       : 1.3969268	(pressure: 1.0312033	viscous: 0.36572346)
        Cs       : 0.00024625112	(pressure: 0.0002448067	viscous: 1.4444253e-06)
        Cl       : -0.0023631521	(pressure: -0.0023840315	viscous: 2.087935e-05)
        CmRoll       : 3.9341767e-08	(pressure: 2.921991e-08	viscous: 1.0121857e-08)
        CmPitch       : 0.0024596303	(pressure: 0.0024662135	viscous: -6.5832584e-06)
        CmYaw       : 0.00046698279	(pressure: 0.00047362626	viscous: -6.6434712e-06)
        Cd(f)    : 0.69846342
        Cd(r)    : 0.69846334
        Cs(f)    : 0.00059010835
        Cs(r)    : -0.00034385723
        Cl(f)    : 0.0012780542
        Cl(r)    : -0.0036412063
forces force_computation write:
    Sum of forces
        Total    : (6.1479242 -0.010400316 -0.0010837599)
        Pressure : (4.5383623 -0.010492207 -0.0010774029)
        Viscous  : (1.6095619 9.1890761e-05 -6.3569668e-06)
    Sum of moments
        Total    : (1.9170425e-07 0.0022755101 -0.011985267)
        Pressure : (1.4238255e-07 0.0023078823 -0.012017346)
        Viscous  : (4.9321707e-08 -3.2372254e-05 3.207885e-05)


Time = 4

smoothSolver:  Solving for Ux, Initial residual = 0.020841122, Final residual = 0.00069703702, No Iterations 2
smoothSolver:  Solving for Uy, Initial residual = 0.060010788, Final residual = 0.0019986364, No Iterations 2
smoothSolver:  Solving for Uz, Initial residual = 0.060511677, Final residual = 0.0020478273, No Iterations 2
GAMG:  Solving for p, Initial residual = 0.19046436, Final residual = 0.00079382552, No Iterations 6
GAMG:  Solving for p, Initial residual = 0.014320721, Final residual = 5.9338715e-05, No Iterations 3
GAMG:  Solving for p, Initial residual = 0.0017615596, Final residual = 7.5901093e-06, No Iterations 3
GAMG:  Solving for p, Initial residual = 0.00034901575, Final residual = 2.4219608e-06, No Iterations 3
GAMG:  Solving for p, Initial residual = 9.6325387e-05, Final residual = 6.148847e-07, No Iterations 3
GAMG:  Solving for p, Initial residual = 2.8372897e-05, Final residual = 2.1264217e-07, No Iterations 3
time step continuity errors : sum local = 1.9082318e-07, global = -8.5922403e-09, cumulative = 5.4010563e-09
smoothSolver:  Solving for omega, Initial residual = 0.010965212, Final residual = 0.00054009742, No Iterations 2
smoothSolver:  Solving for k, Initial residual = 0.1043142, Final residual = 0.0050465502, No Iterations 2
ExecutionTime = 1.54 s  ClockTime = 1 s

forceCoeffs forceCoeffs_cl execute:
    Coefficients
        Cd       : -0.043972735	(pressure: -0.058860072	viscous: 0.014887337)
        Cs       : 0.00033365581	(pressure: 0.00033354005	viscous: 1.1576057e-07)
        Cl       : 0.00064693983	(pressure: 0.00064595228	viscous: 9.8754778e-07)
        CmRoll       : 1.8284795e-09	(pressure: 1.2832481e-09	viscous: 5.4523144e-10)
        CmPitch       : -0.00030381353	(pressure: -0.00030349448	viscous: -3.1904966e-07)
        CmYaw       : 0.00017874636	(pressure: 0.00017886177	viscous: -1.1540177e-07)
        Cd(f)    : -0.021986366
        Cd(r)    : -0.02198637
        Cs(f)    : 0.00034557427
        Cs(r)    : -1.1918459e-05
        Cl(f)    : 1.9656381e-05
        Cl(r)    : 0.00062728344
forceCoeffs forceCoeffs_cd execute:
    Coefficients
        Cd       : -1.1055559	(pressure: -1.479851	viscous: 0.37429517)
        Cs       : 0.008388724	(pressure: 0.0083858135	viscous: 2.9104347e-06)
        Cl       : 0.016265263	(pressure: 0.016240435	viscous: 2.4828777e-05)
        CmRoll       : 4.5971355e-08	(pressure: 3.2263229e-08	viscous: 1.3708127e-08)
        CmPitch       : -0.0076384339	(pressure: -0.0076304124	viscous: -8.0214983e-06)
        CmYaw       : 0.0044940141	(pressure: 0.0044969155	viscous: -2.9014138e-06)
        Cd(f)    : -0.55277789
        Cd(r)    : -0.55277798
        Cs(f)    : 0.008688376
        Cs(r)    : -0.00029965209
        Cl(f)    : 0.00049419777
        Cl(r)    : 0.015771066
forces force_computation write:
    Sum of forces
        Total    : (-4.8655906 0.071584001 -0.036919072)
        Pressure : (-6.5128769 0.071474729 -0.036906263)
        Viscous  : (1.6472863 0.00010927233 -1.2808926e-05)
    Sum of moments
        Total    : (2.2400886e-07 0.021898396 0.037220501)
        Pressure : (1.5721201e-07 0.021912534 0.037181414)
        Viscous  : (6.6796851e-08 -1.4137986e-05 3.9087094e-05)


Time = 5

smoothSolver:  Solving for Ux, Initial residual = 0.02385005, Final residual = 0.00083569718, No Iterations 2
smoothSolver:  Solving for Uy, Initial residual = 0.12081629, Final residual = 0.0041129531, No Iterations 2
smoothSolver:  Solving for Uz, Initial residual = 0.12221335, Final residual = 0.0042589809, No Iterations 2
GAMG:  Solving for p, Initial residual = 0.064547622, Final residual = 0.00027089709, No Iterations 5
GAMG:  Solving for p, Initial residual = 0.011972045, Final residual = 5.1916515e-05, No Iterations 3
GAMG:  Solving for p, Initial residual = 0.0013701912, Final residual = 8.4882889e-06, No Iterations 3
GAMG:  Solving for p, Initial residual = 0.00025735601, Final residual = 1.8904917e-06, No Iterations 3
GAMG:  Solving for p, Initial residual = 6.172144e-05, Final residual = 4.6654375e-07, No Iterations 3
GAMG:  Solving for p, Initial residual = 1.6399253e-05, Final residual = 1.3227468e-07, No Iterations 3
time step continuity errors : sum local = 5.2323974e-08, global = -5.9816782e-09, cumulative = -5.8062195e-10
smoothSolver:  Solving for omega, Initial residual = 0.0088630433, Final residual = 0.00046512971, No Iterations 2
smoothSolver:  Solving for k, Initial residual = 0.07504672, Final residual = 0.0038610884, No Iterations 2
ExecutionTime = 1.88 s  ClockTime = 2 s

forceCoeffs forceCoeffs_cl execute:
    Coefficients
        Cd       : -0.070087023	(pressure: -0.085288975	viscous: 0.015201952)
        Cs       : 0.00033156553	(pressure: 0.00033143811	viscous: 1.2741419e-07)
        Cl       : 0.00070316678	(pressure: 0.0007022751	viscous: 8.9168504e-07)
        CmRoll       : 9.9691367e-10	(pressure: 4.295956e-10	viscous: 5.6731807e-10)
        CmPitch       : -0.00037011342	(pressure: -0.00036979477	viscous: -3.186561e-07)
        CmYaw       : 0.00016336799	(pressure: 0.00016331807	viscous: 4.9917359e-08)
        Cd(f)    : -0.03504351
        Cd(r)    : -0.035043512
        Cs(f)    : 0.00032915075
        Cs(r)    : 2.4147766e-06
        Cl(f)    : -1.8530032e-05
        Cl(r)    : 0.00072169681
forceCoeffs forceCoeffs_cd execute:
    Coefficients
        Cd       : -1.7621173	(pressure: -2.1443225	viscous: 0.38220519)
        Cs       : 0.0083361704	(pressure: 0.0083329669	viscous: 3.2034284e-06)
        Cl       : 0.017678913	(pressure: 0.017656494	viscous: 2.2418611e-05)
        CmRoll       : 2.5064253e-08	(pressure: 1.0800828e-08	viscous: 1.4263425e-08)
        CmPitch       : -0.0093053357	(pressure: -0.0092973241	viscous: -8.0116034e-06)
        CmYaw       : 0.0041073732	(pressure: 0.0041061182	viscous: 1.2550147e-06)
        Cd(f)    : -0.88105864
        Cd(r)    : -0.88105869
        Cs(f)    : 0.0082754584
        Cs(r)    : 6.0711948e-05
        Cl(f)    : -0.00046587925
        Cl(r)    : 0.018144792
forces force_computation write:
    Sum of forces
        Total    : (-7.7551409 0.077805523 -0.036687781)
        Pressure : (-9.4372395 0.077706858 -0.036673683)
        Viscous  : (1.6820986 9.86651e-05 -1.4098402e-05)
    Sum of moments
        Total    : (1.2213289e-07 0.020014376 0.045342967)
        Pressure : (5.2630189e-08 0.020008261 0.045303928)
        Viscous  : (6.9502706e-08 6.1154258e-06 3.9038878e-05)


Time = 6

smoothSolver:  Solving for Ux, Initial residual = 0.034427289, Final residual = 0.0012263255, No Iterations 2
smoothSolver:  Solving for Uy, Initial residual = 0.21342863, Final residual = 0.0072976133, No Iterations 2
smoothSolver:  Solving for Uz, Initial residual = 0.21645107, Final residual = 0.0075759062, No Iterations 2
GAMG:  Solving for p, Initial residual = 0.083120208, Final residual = 0.00034921495, No Iterations 5
GAMG:  Solving for p, Initial residual = 0.021103613, Final residual = 0.00011849072, No Iterations 3
GAMG:  Solving for p, Initial residual = 0.002657754, Final residual = 2.0099444e-05, No Iterations 3
GAMG:  Solving for p, Initial residual = 0.00053283123, Final residual = 4.9537373e-06, No Iterations 3
GAMG:  Solving for p, Initial residual = 0.00014044877, Final residual = 1.2467224e-06, No Iterations 3
GAMG:  Solving for p, Initial residual = 3.9919577e-05, Final residual = 3.871787e-07, No Iterations 3
time step continuity errors : sum local = 1.1997709e-07, global = -3.9250602e-09, cumulative = -4.5056822e-09
smoothSolver:  Solving for omega, Initial residual = 0.0073332852, Final residual = 0.00040622165, No Iterations 2
smoothSolver:  Solving for k, Initial residual = 0.057407211, Final residual = 0.0031136053, No Iterations 2
ExecutionTime = 2.24 s  ClockTime = 2 s

forceCoeffs forceCoeffs_cl execute:
    Coefficients
        Cd       : -0.028729037	(pressure: -0.044239234	viscous: 0.015510198)
        Cs       : 9.3491011e-05	(pressure: 9.3451001e-05	viscous: 4.0009985e-08)
        Cl       : 0.00026777941	(pressure: 0.00026708582	viscous: 6.9358398e-07)
        CmRoll       : 6.2711667e-11	(pressure: -3.1193179e-10	viscous: 3.7464345e-10)
        CmPitch       : -0.00016378362	(pressure: -0.00016349976	viscous: -2.8386088e-07)
        CmYaw       : 3.364457e-05	(pressure: 3.3493925e-05	viscous: 1.5064447e-07)
        Cd(f)    : -0.014364518
        Cd(r)    : -0.014364518
        Cs(f)    : 8.0390075e-05
        Cs(r)    : 1.3100936e-05
        Cl(f)    : -2.9893914e-05
        Cl(r)    : 0.00029767332
forceCoeffs forceCoeffs_cd execute:
    Coefficients
        Cd       : -0.7223011	(pressure: -1.1122561	viscous: 0.38995504)
        Cs       : 0.0023505369	(pressure: 0.002349531	viscous: 1.005925e-06)
        Cl       : 0.0067324694	(pressure: 0.0067150314	viscous: 1.7437984e-05)
        CmRoll       : 1.5766872e-09	(pressure: -7.8425419e-09	viscous: 9.4192291e-09)
        CmPitch       : -0.004117823	(pressure: -0.0041106862	viscous: -7.1367875e-06)
        CmYaw       : 0.00084588668	(pressure: 0.0008420992	viscous: 3.7874806e-06)
        Cd(f)    : -0.36115055
        Cd(r)    : -0.36115055
        Cs(f)    : 0.0020211551
        Cs(r)    : 0.00032938175
        Cl(f)    : -0.00075158827
        Cl(r)    : 0.0074840577
forces force_computation write:
    Sum of forces
        Total    : (-3.1788728 0.029629837 -0.010344796)
        Pressure : (-4.8950788 0.029553091 -0.010340369)
        Viscous  : (1.716206 7.6745185e-05 -4.4271116e-06)
    Sum of moments
        Total    : (7.6828692e-09 0.00412183 0.020065295)
        Pressure : (-3.8215076e-08 0.0041033744 0.020030519)
        Viscous  : (4.5897946e-08 1.8455606e-05 3.4776082e-05)


Time = 7

smoothSolver:  Solving for Ux, Initial residual = 0.023578488, Final residual = 0.00079169105, No Iterations 2
smoothSolver:  Solving for Uy, Initial residual = 0.13150389, Final residual = 0.0043240754, No Iterations 2
smoothSolver:  Solving for Uz, Initial residual = 0.13294695, Final residual = 0.0044636557, No Iterations 2
GAMG:  Solving for p, Initial residual = 0.15310196, Final residual = 0.00090433799, No Iterations 5
GAMG:  Solving for p, Initial residual = 0.013692367, Final residual = 7.1982306e-05, No Iterations 3
GAMG:  Solving for p, Initial residual = 0.0016847926, Final residual = 1.2063117e-05, No Iterations 3
GAMG:  Solving for p, Initial residual = 0.00033458453, Final residual = 2.9719781e-06, No Iterations 3
GAMG:  Solving for p, Initial residual = 8.9873421e-05, Final residual = 7.5376171e-07, No Iterations 3
GAMG:  Solving for p, Initial residual = 2.5825201e-05, Final residual = 2.1827909e-07, No Iterations 3
time step continuity errors : sum local = 1.2471969e-07, global = -7.8855304e-09, cumulative = -1.2391213e-08
smoothSolver:  Solving for omega, Initial residual = 0.0061870832, Final residual = 0.00035891863, No Iterations 2
smoothSolver:  Solving for k, Initial residual = 0.045686653, Final residual = 0.0025909554, No Iterations 2
ExecutionTime = 2.58 s  ClockTime = 2 s

forceCoeffs forceCoeffs_cl execute:
    Coefficients
        Cd       : 0.030435942	(pressure: 0.014613963	viscous: 0.015821979)
        Cs       : -0.00013743956	(pressure: -0.00013737098	viscous: -6.8574974e-08)
        Cl       : -0.0002277458	(pressure: -0.00022821671	viscous: 4.7091284e-07)
        CmRoll       : -1.0104982e-10	(pressure: -3.6473933e-10	viscous: 2.6368951e-10)
        CmPitch       : 9.8450054e-05	(pressure: 9.8664045e-05	viscous: -2.1399157e-07)
        CmYaw       : -8.5828654e-05	(pressure: -8.5969875e-05	viscous: 1.4122182e-07)
        Cd(f)    : 0.015217971
        Cd(r)    : 0.015217971
        Cs(f)    : -0.00015454843
        Cs(r)    : 1.7108875e-05
        Cl(f)    : -1.5422846e-05
        Cl(r)    : -0.00021232295
forceCoeffs forceCoeffs_cd execute:
    Coefficients
        Cd       : 0.76521586	(pressure: 0.36742206	viscous: 0.3977938)
        Cs       : -0.0034554846	(pressure: -0.0034537605	viscous: -1.7241016e-06)
        Cl       : -0.0057259505	(pressure: -0.0057377901	viscous: 1.1839619e-05)
        CmRoll       : -2.5405794e-09	(pressure: -9.1702212e-09	viscous: 6.6296418e-09)
        CmPitch       : 0.0024752164	(pressure: 0.0024805965	viscous: -5.3801437e-06)
        CmYaw       : -0.002157891	(pressure: -0.0021614416	viscous: 3.5505777e-06)
        Cd(f)    : 0.38260793
        Cd(r)    : 0.38260793
        Cs(f)    : -0.0038856333
        Cs(r)    : 0.00043014876
        Cl(f)    : -0.00038775887
        Cl(r)    : -0.0053381916
forces force_computation write:
    Sum of forces
        Total    : (3.3677421 -0.025200111 0.01520771)
        Pressure : (1.6170375 -0.025252218 0.015200122)
        Viscous  : (1.7507046 5.2106585e-05 7.5878325e-06)
    Sum of moments
        Total    : (-1.2379715e-08 -0.010514955 -0.012061215)
        Pressure : (-4.4684582e-08 -0.010532256 -0.012087431)
        Viscous  : (3.2304866e-08 1.7301227e-05 2.6216322e-05)


Time = 8

smoothSolver:  Solving for Ux, Initial residual = 0.019353186, Final residual = 0.00064341172, No Iterations 2
smoothSolver:  Solving for Uy, Initial residual = 0.098162027, Final residual = 0.0034171941, No Iterations 2
smoothSolver:  Solving for Uz, Initial residual = 0.098421716, Final residual = 0.0035181024, No Iterations 2
GAMG:  Solving for p, Initial residual = 0.23864981, Final residual = 0.0011924951, No Iterations 5
GAMG:  Solving for p, Initial residual = 0.013191362, Final residual = 6.5699839e-05, No Iterations 3
GAMG:  Solving for p, Initial residual = 0.0015023108, Final residual = 1.0906348e-05, No Iterations 3
GAMG:  Solving for p, Initial residual = 0.00029072679, Final residual = 2.6865532e-06, No Iterations 3
GAMG:  Solving for p, Initial residual = 7.3989872e-05, Final residual = 6.5066501e-07, No Iterations 3
GAMG:  Solving for p, Initial residual = 2.0705722e-05, Final residual = 1.8433347e-07, No Iterations 3
time step continuity errors : sum local = 5.7385256e-08, global = 6.1335654e-10, cumulative = -1.1777856e-08
smoothSolver:  Solving for omega, Initial residual = 0.0052995697, Final residual = 0.00031974715, No Iterations 2
smoothSolver:  Solving for k, Initial residual = 0.037397375, Final residual = 0.0022029413, No Iterations 2
ExecutionTime = 2.92 s  ClockTime = 3 s

forceCoeffs forceCoeffs_cl execute:
    Coefficients
        Cd       : 0.061008156	(pressure: 0.044878229	viscous: 0.016129927)
        Cs       : -0.00019733008	(pressure: -0.0001972145	viscous: -1.1557913e-07)
        Cl       : -0.00040545554	(pressure: -0.00040575522	viscous: 2.9967873e-07)
        CmRoll       : 6.5357382e-10	(pressure: 3.660209e-10	viscous: 2.8755292e-10)
        CmPitch       : 0.00020565206	(pressure: 0.00020579512	viscous: -1.4305596e-07)
        CmYaw       : -0.00010883311	(pressure: -0.00010890611	viscous: 7.3006803e-08)
        Cd(f)    : 0.030504078
        Cd(r)    : 0.030504077
        Cs(f)    : -0.00020749815
        Cs(r)    : 1.0168064e-05
        Cl(f)    : 2.9242903e-06
        Cl(r)    : -0.00040837983
forceCoeffs forceCoeffs_cd execute:
    Coefficients
        Cd       : 1.5338578	(pressure: 1.1283216	viscous: 0.40553619)
        Cs       : -0.0049612432	(pressure: -0.0049583373	viscous: -2.9058729e-06)
        Cl       : -0.010193902	(pressure: -0.010201436	viscous: 7.5344774e-06)
        CmRoll       : 1.6432054e-08	(pressure: 9.2024421e-09	viscous: 7.2296122e-09)
        CmPitch       : 0.005170473	(pressure: 0.0051740697	viscous: -3.5966913e-06)
        CmYaw       : -0.0027362655	(pressure: -0.002738101	viscous: 1.835526e-06)
        Cd(f)    : 0.76692893
        Cd(r)    : 0.7669289
        Cs(f)    : -0.0052168871
        Cs(r)    : 0.00025564392
        Cl(f)    : 7.3522066e-05
        Cl(r)    : -0.010267424
forces force_computation write:
    Sum of forces
        Total    : (6.7505627 -0.044863724 0.021834607)
        Pressure : (4.9657836 -0.044896883 0.021821818)
        Viscous  : (1.7847791 3.3159502e-05 1.278885e-05)
    Sum of moments
        Total    : (8.0069985e-08 -0.013333253 -0.02519464)
        Pressure : (4.4841587e-08 -0.013342197 -0.025212166)
        Viscous  : (3.5228397e-08 8.9441367e-06 1.7525929e-05)


Time = 9

smoothSolver:  Solving for Ux, Initial residual = 0.022892483, Final residual = 0.00082982309, No Iterations 2
smoothSolver:  Solving for Uy, Initial residual = 0.12116599, Final residual = 0.0043368274, No Iterations 2
smoothSolver:  Solving for Uz, Initial residual = 0.1208687, Final residual = 0.0044501794, No Iterations 2
GAMG:  Solving for p, Initial residual = 0.13349308, Final residual = 0.0009884241, No Iterations 4
GAMG:  Solving for p, Initial residual = 0.016130329, Final residual = 0.00010915661, No Iterations 3
GAMG:  Solving for p, Initial residual = 0.001937221, Final residual = 1.6969203e-05, No Iterations 3
GAMG:  Solving for p, Initial residual = 0.00035420369, Final residual = 3.4731346e-06, No Iterations 3
GAMG:  Solving for p, Initial residual = 8.6352529e-05, Final residual = 8.5144665e-07, No Iterations 3
GAMG:  Solving for p, Initial residual = 2.2956235e-05, Final residual = 1.0464021e-07, No Iterations 4
time step continuity errors : sum local = 2.2170106e-08, global = 2.0421844e-09, cumulative = -9.7356717e-09
smoothSolver:  Solving for omega, Initial residual = 0.0046044042, Final residual = 0.00028780966, No Iterations 2
smoothSolver:  Solving for k, Initial residual = 0.031270976, Final residual = 0.0019045122, No Iterations 2
ExecutionTime = 3.25 s  ClockTime = 3 s

forceCoeffs forceCoeffs_cl execute:
    Coefficients
        Cd       : 0.051877001	(pressure: 0.035459824	viscous: 0.016417177)
        Cs       : -8.2002526e-05	(pressure: -8.1931103e-05	viscous: -7.1422929e-08)
        Cl       : -0.0002284234	(pressure: -0.00022871209	viscous: 2.8868664e-07)
        CmRoll       : 1.9237481e-09	(pressure: 1.5510688e-09	viscous: 3.7267927e-10)
        CmPitch       : 0.00012581341	(pressure: 0.00012592164	viscous: -1.0822784e-07)
        CmYaw       : -4.3130409e-05	(pressure: -4.3152796e-05	viscous: 2.2387658e-08)
        Cd(f)    : 0.025938503
        Cd(r)    : 0.025938499
        Cs(f)    : -8.4131671e-05
        Cs(r)    : 2.1291457e-06
        Cl(f)    : 1.1601709e-05
        Cl(r)    : -0.00024002511
forceCoeffs forceCoeffs_cd execute:
    Coefficients
        Cd       : 1.3042837	(pressure: 0.89152554	viscous: 0.41275819)
        Cs       : -0.0020616951	(pressure: -0.0020598994	viscous: -1.7957045e-06)
        Cl       : -0.0057429867	(pressure: -0.0057502448	viscous: 7.2581158e-06)
        CmRoll       : 4.8366584e-08	(pressure: 3.8996738e-08	viscous: 9.369846e-09)
        CmPitch       : 0.0031631818	(pressure: 0.0031659028	viscous: -2.721048e-06)
        CmYaw       : -0.0010843782	(pressure: -0.0010849411	viscous: 5.628671e-07)
        Cd(f)    : 0.65214191
        Cd(r)    : 0.65214182
        Cs(f)    : -0.0021152258
        Cs(r)    : 5.353066e-05
        Cl(f)    : 0.00029168841
        Cl(r)    : -0.0060346751
forces force_computation write:
    Sum of forces
        Total    : (5.740199 -0.025275088 0.0090735933)
        Pressure : (3.9236355 -0.025307031 0.0090656903)
        Viscous  : (1.8165634 3.1943225e-05 7.9029591e-06)
    Sum of moments
        Total    : (2.3568031e-07 -0.0052839496 -0.015413527)
        Pressure : (1.90023e-07 -0.0052866924 -0.015426786)
        Viscous  : (4.5657312e-08 2.7427344e-06 1.3259101e-05)


Time = 10

smoothSolver:  Solving for Ux, Initial residual = 0.015764184, Final residual = 0.00056668559, No Iterations 2
smoothSolver:  Solving for Uy, Initial residual = 0.067949415, Final residual = 0.002311933, No Iterations 2
smoothSolver:  Solving for Uz, Initial residual = 0.06765592, Final residual = 0.0023525817, No Iterations 2
GAMG:  Solving for p, Initial residual = 0.34769634, Final residual = 0.0015193204, No Iterations 5
GAMG:  Solving for p, Initial residual = 0.0098270014, Final residual = 5.4248064e-05, No Iterations 3
GAMG:  Solving for p, Initial residual = 0.0012905857, Final residual = 9.9799839e-06, No Iterations 3
GAMG:  Solving for p, Initial residual = 0.00027558627, Final residual = 2.5407038e-06, No Iterations 3
GAMG:  Solving for p, Initial residual = 7.5986017e-05, Final residual = 6.9559495e-07, No Iterations 3
GAMG:  Solving for p, Initial residual = 2.2717826e-05, Final residual = 2.2605144e-07, No Iterations 3
time step continuity errors : sum local = 1.1007992e-07, global = 6.2501466e-10, cumulative = -9.110657e-09
smoothSolver:  Solving for omega, Initial residual = 0.0040415355, Final residual = 0.00026070576, No Iterations 2
smoothSolver:  Solving for k, Initial residual = 0.026567102, Final residual = 0.0016660702, No Iterations 2
ExecutionTime = 3.59 s  ClockTime = 3 s

forceCoeffs forceCoeffs_cl execute:
    Coefficients
        Cd       : 0.023086501	(pressure: 0.00641411	viscous: 0.016672391)
        Cs       : 6.9272375e-05	(pressure: 6.9223309e-05	viscous: 4.9065401e-08)
        Cl       : 6.0868985e-05	(pressure: 6.0470072e-05	viscous: 3.9891232e-07)
        CmRoll       : 2.8820437e-09	(pressure: 2.503847e-09	viscous: 3.781967e-10)
        CmPitch       : -2.6643635e-05	(pressure: -2.6502654e-05	viscous: -1.409805e-07)
        CmYaw       : 3.7523415e-05	(pressure: 3.749808e-05	viscous: 2.5335113e-08)
        Cd(f)    : 0.011543253
        Cd(r)    : 0.011543248
        Cs(f)    : 7.2159603e-05
        Cs(r)    : -2.8872278e-06
        Cl(f)    : 3.7908576e-06
        Cl(r)    : 5.7078127e-05
forceCoeffs forceCoeffs_cd execute:
    Coefficients
        Cd       : 0.58043732	(pressure: 0.16126258	viscous: 0.41917474)
        Cs       : 0.0017416356	(pressure: 0.001740402	viscous: 1.2335949e-06)
        Cl       : 0.0015303588	(pressure: 0.0015203294	viscous: 1.0029393e-05)
        CmRoll       : 7.2459908e-08	(pressure: 6.2951343e-08	viscous: 9.5085643e-09)
        CmPitch       : -0.00066987024	(pressure: -0.00066632573	viscous: -3.5445104e-06)
        CmYaw       : 0.00094340803	(pressure: 0.00094277106	viscous: 6.3697159e-07)
        Cd(f)    : 0.29021873
        Cd(r)    : 0.29021859
        Cs(f)    : 0.0018142258
        Cs(r)    : -7.2590244e-05
        Cl(f)    : 9.530917e-05
        Cl(r)    : 0.0014350496
forces force_computation write:
    Sum of forces
        Total    : (2.5545252 0.0067351634 -0.007665)
        Pressure : (0.70972235 0.0066910237 -0.0076595709)
        Viscous  : (1.8448029 4.4139716e-05 -5.4290949e-06)
    Sum of moments
        Total    : (3.5308207e-07 0.0045970313 0.0032641384)
        Pressure : (3.0674881e-07 0.0045939274 0.0032468668)
        Viscous  : (4.6333257e-08 3.1038302e-06 1.7271662e-05)


Time = 11

smoothSolver:  Solving for Ux, Initial residual = 0.0094820283, Final residual = 0.00030366514, No Iterations 2
smoothSolver:  Solving for Uy, Initial residual = 0.037998761, Final residual = 0.0012799809, No Iterations 2
smoothSolver:  Solving for Uz, Initial residual = 0.037810684, Final residual = 0.001317364, No Iterations 2
GAMG:  Solving for p, Initial residual = 0.10040035, Final residual = 0.00048661433, No Iterations 5
GAMG:  Solving for p, Initial residual = 0.0081553504, Final residual = 3.972744e-05, No Iterations 3
GAMG:  Solving for p, Initial residual = 0.0010785628, Final residual = 7.2266156e-06, No Iterations 3
GAMG:  Solving for p, Initial residual = 0.00022543166, Final residual = 1.8174179e-06, No Iterations 3
GAMG:  Solving for p, Initial residual = 6.0936158e-05, Final residual = 4.8267708e-07, No Iterations 3
GAMG:  Solving for p, Initial residual = 1.7724517e-05, Final residual = 1.5515245e-07, No Iterations 3
time step continuity errors : sum local = 6.5822296e-08, global = -1.7194122e-09, cumulative = -1.0830069e-08
smoothSolver:  Solving for omega, Initial residual = 0.003574268, Final residual = 0.00023707698, No Iterations 2
smoothSolver:  Solving for k, Initial residual = 0.022893778, Final residual = 0.0014737083, No Iterations 2
ExecutionTime = 3.93 s  ClockTime = 4 s

forceCoeffs forceCoeffs_cl execute:
    Coefficients
        Cd       : 0.00086490589	(pressure: -0.016031824	viscous: 0.01689673)
        Cs       : 0.00012659841	(pressure: 0.00012642757	viscous: 1.7084241e-07)
        Cl       : 0.00022821009	(pressure: 0.00022765818	viscous: 5.5191471e-07)
        CmRoll       : 2.6409625e-09	(pressure: 2.2079437e-09	viscous: 4.3301886e-10)
        CmPitch       : -0.00012088985	(pressure: -0.00012067903	viscous: -2.1081854e-07)
        CmYaw       : 6.8724846e-05	(pressure: 6.8655364e-05	viscous: 6.9482052e-08)
        Cd(f)    : 0.00043245558
        Cd(r)    : 0.0004324503
        Cs(f)    : 0.00013202405
        Cs(r)    : -5.4256422e-06
        Cl(f)    : -6.7848035e-06
        Cl(r)    : 0.00023499489
forceCoeffs forceCoeffs_cd execute:
    Coefficients
        Cd       : 0.021745333	(pressure: -0.40306969	viscous: 0.42481503)
        Cs       : 0.003182918	(pressure: 0.0031786227	viscous: 4.2952939e-06)
        Cl       : 0.0057376236	(pressure: 0.0057237475	viscous: 1.3876156e-05)
        CmRoll       : 6.6398681e-08	(pressure: 5.5511786e-08	viscous: 1.0886895e-08)
        CmPitch       : -0.0030393943	(pressure: -0.0030340939	viscous: -5.3003678e-06)
        CmYaw       : 0.0017278697	(pressure: 0.0017261228	viscous: 1.7469072e-06)
        Cd(f)    : 0.010872733
        Cd(r)    : 0.0108726
        Cs(f)    : 0.0033193287
        Cs(r)    : -0.00013641068
        Cl(f)    : -0.0001705825
        Cl(r)    : 0.0059082061
forces force_computation write:
    Sum of forces
        Total    : (0.095701982 0.025251485 -0.014008135)
        Pressure : (-1.773924 0.025190416 -0.013989231)
        Viscous  : (1.869626 6.1069456e-05 -1.8903741e-05)
    Sum of moments
        Total    : (3.2354697e-07 0.0084195499 0.014810337)
        Pressure : (2.7049739e-07 0.0084110375 0.014784509)
        Viscous  : (5.3049576e-08 8.5123159e-06 2.5827591e-05)


Time = 12

smoothSolver:  Solving for Ux, Initial residual = 0.009260178, Final residual = 0.0003159865, No Iterations 2
smoothSolver:  Solving for Uy, Initial residual = 0.065118921, Final residual = 0.0023925543, No Iterations 2
smoothSolver:  Solving for Uz, Initial residual = 0.064977765, Final residual = 0.0024778903, No Iterations 2
GAMG:  Solving for p, Initial residual = 0.060067257, Final residual = 0.00049072246, No Iterations 4
GAMG:  Solving for p, Initial residual = 0.013062328, Final residual = 8.2416722e-05, No Iterations 3
GAMG:  Solving for p, Initial residual = 0.0016010425, Final residual = 1.1018482e-05, No Iterations 3
GAMG:  Solving for p, Initial residual = 0.00028169625, Final residual = 2.1808179e-06, No Iterations 3
GAMG:  Solving for p, Initial residual = 6.62241e-05, Final residual = 4.3108486e-07, No Iterations 3
GAMG:  Solving for p, Initial residual = 1.62094e-05, Final residual = 1.2279161e-07, No Iterations 3
time step continuity errors : sum local = 2.0156273e-08, global = -7.3199306e-10, cumulative = -1.1562062e-08
smoothSolver:  Solving for omega, Initial residual = 0.0031872236, Final residual = 0.00021689656, No Iterations 2
smoothSolver:  Solving for k, Initial residual = 0.019983711, Final residual = 0.0013178061, No Iterations 2
ExecutionTime = 4.26 s  ClockTime = 4 s

forceCoeffs forceCoeffs_cl execute:
    Coefficients
        Cd       : -0.0021328364	(pressure: -0.01923266	viscous: 0.017099824)
        Cs       : 7.7932277e-05	(pressure: 7.7712591e-05	viscous: 2.1968642e-07)
        Cl       : 0.00019550714	(pressure: 0.00019483439	viscous: 6.727531e-07)
        CmRoll       : 1.5768973e-09	(pressure: 1.1048905e-09	viscous: 4.7200685e-10)
        CmPitch       : -0.00010795188	(pressure: -0.00010769077	viscous: -2.611069e-07)
        CmYaw       : 4.2328228e-05	(pressure: 4.2212616e-05	viscous: 1.1561177e-07)
        Cd(f)    : -0.0010664166
        Cd(r)    : -0.0010664198
        Cs(f)    : 8.1294366e-05
        Cs(r)    : -3.3620892e-06
        Cl(f)    : -1.0198309e-05
        Cl(r)    : 0.00020570545
forceCoeffs forceCoeffs_cd execute:
    Coefficients
        Cd       : -0.05362345	(pressure: -0.48354463	viscous: 0.42992118)
        Cs       : 0.0019593615	(pressure: 0.0019538382	viscous: 5.5233229e-06)
        Cl       : 0.0049154109	(pressure: 0.0048984967	viscous: 1.6914257e-05)
        CmRoll       : 3.9646115e-08	(pressure: 2.777899e-08	viscous: 1.1867125e-08)
        CmPitch       : -0.0027141098	(pressure: -0.0027075451	viscous: -6.5647101e-06)
        CmYaw       : 0.0010642099	(pressure: 0.0010613032	viscous: 2.9066937e-06)
        Cd(f)    : -0.026811685
        Cd(r)    : -0.026811765
        Cs(f)    : 0.0020438907
        Cs(r)    : -8.4529139e-05
        Cl(f)    : -0.00025640433
        Cl(r)    : 0.0051718153
forces force_computation write:
    Sum of forces
        Total    : (-0.23599871 0.021632898 -0.0086232196)
        Pressure : (-2.1280971 0.021558458 -0.0085989113)
        Viscous  : (1.8920984 7.4440245e-05 -2.430834e-05)
    Sum of moments
        Total    : (1.9318728e-07 0.0051856737 0.013225293)
        Pressure : (1.3536124e-07 0.00517151 0.013193304)
        Viscous  : (5.7826033e-08 1.4163714e-05 3.1988468e-05)


Time = 13

smoothSolver:  Solving for Ux, Initial residual = 0.008041966, Final residual = 0.00027855837, No Iterations 2
smoothSolver:  Solving for Uy, Initial residual = 0.058888333, Final residual = 0.0021371503, No Iterations 2
smoothSolver:  Solving for Uz, Initial residual = 0.058856852, Final residual = 0.0022159366, No Iterations 2
GAMG:  Solving for p, Initial residual = 0.072912924, Final residual = 0.00061960167, No Iterations 4
GAMG:  Solving for p, Initial residual = 0.022272532, Final residual = 0.00015146549, No Iterations 3
GAMG:  Solving for p, Initial residual = 0.0028061444, Final residual = 2.3144327e-05, No Iterations 3
GAMG:  Solving for p, Initial residual = 0.00053341558, Final residual = 5.2808239e-06, No Iterations 3
GAMG:  Solving for p, Initial residual = 0.00013497371, Final residual = 1.1879431e-06, No Iterations 3
GAMG:  Solving for p, Initial residual = 3.5892781e-05, Final residual = 1.6793996e-07, No Iterations 4
time step continuity errors : sum local = 2.131318e-08, global = -3.094638e-09, cumulative = -1.46567e-08
smoothSolver:  Solving for omega, Initial residual = 0.0028661364, Final residual = 0.00019989687, No Iterations 2
smoothSolver:  Solving for k, Initial residual = 0.017622816, Final residual = 0.0011881742, No Iterations 2
ExecutionTime = 4.6 s  ClockTime = 4 s

forceCoeffs forceCoeffs_cl execute:
    Coefficients
        Cd       : 0.0095864143	(pressure: -0.0077042999	viscous: 0.017290714)
        Cs       : -1.2274033e-05	(pressure: -1.2453097e-05	viscous: 1.7906402e-07)
        Cl       : 5.0708455e-05	(pressure: 5.0008496e-05	viscous: 6.9995846e-07)
        CmRoll       : 3.9450717e-10	(pressure: -1.1678977e-10	viscous: 5.1129694e-10)
        CmPitch       : -3.090019e-05	(pressure: -3.0638598e-05	viscous: -2.6159236e-07)
        CmYaw       : -5.9681139e-06	(pressure: -6.1062208e-06	viscous: 1.3810683e-07)
        Cd(f)    : 0.0047932075
        Cd(r)    : 0.0047932068
        Cs(f)    : -1.2105131e-05
        Cs(r)    : -1.6890278e-07
        Cl(f)    : -5.545963e-06
        Cl(r)    : 5.6254418e-05
forceCoeffs forceCoeffs_cd execute:
    Coefficients
        Cd       : 0.24102018	(pressure: -0.19370034	viscous: 0.43472052)
        Cs       : -0.00030859189	(pressure: -0.00031309389	viscous: 4.5020006e-06)
        Cl       : 0.0012749043	(pressure: 0.0012573061	viscous: 1.759825e-05)
        CmRoll       : 9.9186397e-09	(pressure: -2.9363108e-09	viscous: 1.285495e-08)
        CmPitch       : -0.00077688791	(pressure: -0.000770311	viscous: -6.5769155e-06)
        CmYaw       : -0.00015004942	(pressure: -0.00015352168	viscous: 3.472261e-06)
        Cd(f)    : 0.1205101
        Cd(r)    : 0.12051008
        Cs(f)    : -0.00030434537
        Cs(r)    : -4.2465282e-06
        Cl(f)    : -0.00013943576
        Cl(r)    : 0.0014143401
forces force_computation write:
    Sum of forces
        Total    : (1.0607384 0.0056108991 0.0013581239)
        Pressure : (-0.85248208 0.0055334485 0.0013779373)
        Viscous  : (1.9132204 7.7450522e-05 -1.9813465e-05)
    Sum of moments
        Total    : (4.833147e-08 -0.00073115963 0.0037856133)
        Pressure : (-1.4308032e-08 -0.00074807924 0.0037535654)
        Viscous  : (6.2639502e-08 1.6919606e-05 3.2047942e-05)


Time = 14

smoothSolver:  Solving for Ux, Initial residual = 0.0060194803, Final residual = 0.00019347895, No Iterations 2
smoothSolver:  Solving for Uy, Initial residual = 0.034346995, Final residual = 0.001120985, No Iterations 2
smoothSolver:  Solving for Uz, Initial residual = 0.034303309, Final residual = 0.0011516333, No Iterations 2
GAMG:  Solving for p, Initial residual = 0.10077082, Final residual = 0.00098772224, No Iterations 4
GAMG:  Solving for p, Initial residual = 0.012664165, Final residual = 9.1201617e-05, No Iterations 3
GAMG:  Solving for p, Initial residual = 0.0017000592, Final residual = 1.5548511e-05, No Iterations 3
GAMG:  Solving for p, Initial residual = 0.00034198909, Final residual = 3.3006629e-06, No Iterations 3
GAMG:  Solving for p, Initial residual = 9.0552136e-05, Final residual = 8.09257e-07, No Iterations 3
GAMG:  Solving for p, Initial residual = 2.5142684e-05, Final residual = 2.2729023e-07, No Iterations 3
time step continuity errors : sum local = 4.1338215e-08, global = -1.8505624e-09, cumulative = -1.6507263e-08
smoothSolver:  Solving for omega, Initial residual = 0.0025991527, Final residual = 0.00018566423, No Iterations 2
smoothSolver:  Solving for k, Initial residual = 0.015671399, Final residual = 0.0010784879, No Iterations 2
ExecutionTime = 4.95 s  ClockTime = 5 s

forceCoeffs forceCoeffs_cl execute:
    Coefficients
        Cd       : 0.023167557	(pressure: 0.0056953594	viscous: 0.017472198)
        Cs       : -6.5591857e-05	(pressure: -6.568269e-05	viscous: 9.0833482e-08)
        Cl       : -7.0896026e-05	(pressure: -7.1549619e-05	viscous: 6.535931e-07)
        CmRoll       : -1.6017747e-10	(pressure: -6.7984155e-10	viscous: 5.1966408e-10)
        CmPitch       : 3.6092391e-05	(pressure: 3.6310445e-05	viscous: -2.180544e-07)
        CmYaw       : -3.6273183e-05	(pressure: -3.6410515e-05	viscous: 1.3733123e-07)
        Cd(f)    : 0.011583778
        Cd(r)    : 0.011583779
        Cs(f)    : -6.9069112e-05
        Cs(r)    : 3.4772551e-06
        Cl(f)    : 6.4437758e-07
        Cl(r)    : -7.1540404e-05
forceCoeffs forceCoeffs_cd execute:
    Coefficients
        Cd       : 0.58247522	(pressure: 0.14319186	viscous: 0.43928336)
        Cs       : -0.0016491006	(pressure: -0.0016513843	viscous: 2.2837217e-06)
        Cl       : -0.0017824572	(pressure: -0.0017988897	viscous: 1.6432539e-05)
        CmRoll       : -4.0271576e-09	(pressure: -1.7092474e-08	viscous: 1.3065316e-08)
        CmPitch       : 0.00090742943	(pressure: 0.00091291172	viscous: -5.4822908e-06)
        CmYaw       : -0.0009119749	(pressure: -0.00091542766	viscous: 3.4527611e-06)
        Cd(f)    : 0.29123761
        Cd(r)    : 0.29123762
        Cs(f)    : -0.0017365252
        Cs(r)    : 8.7424622e-05
        Cl(f)    : 1.6200844e-05
        Cl(r)    : -0.001798658
forces force_computation write:
    Sum of forces
        Total    : (2.5634941 -0.0078446572 0.00725775)
        Pressure : (0.63019248 -0.0079169774 0.0072678008)
        Viscous  : (1.9333016 7.2320187e-05 -1.005074e-05)
    Sum of moments
        Total    : (-1.9623502e-08 -0.0044438641 -0.004421715)
        Pressure : (-8.3288071e-08 -0.0044606887 -0.0044484291)
        Viscous  : (6.3664569e-08 1.6824587e-05 2.6714064e-05)


Time = 15

smoothSolver:  Solving for Ux, Initial residual = 0.006379223, Final residual = 0.00021890035, No Iterations 2
smoothSolver:  Solving for Uy, Initial residual = 0.040548853, Final residual = 0.0014639966, No Iterations 2
smoothSolver:  Solving for Uz, Initial residual = 0.04045929, Final residual = 0.0015222064, No Iterations 2
GAMG:  Solving for p, Initial residual = 0.2095641, Final residual = 0.0017038758, No Iterations 4
GAMG:  Solving for p, Initial residual = 0.021233744, Final residual = 0.00015456109, No Iterations 3
GAMG:  Solving for p, Initial residual = 0.00268218, Final residual = 2.617331e-05, No Iterations 3
GAMG:  Solving for p, Initial residual = 0.00053299858, Final residual = 2.0448593e-06, No Iterations 4
GAMG:  Solving for p, Initial residual = 0.00013637375, Final residual = 9.9724709e-07, No Iterations 3
GAMG:  Solving for p, Initial residual = 3.5909038e-05, Final residual = 3.4385949e-07, No Iterations 3
time step continuity errors : sum local = 2.2170042e-08, global = 6.6553625e-10, cumulative = -1.5841726e-08
smoothSolver:  Solving for omega, Initial residual = 0.0023779746, Final residual = 0.00017387515, No Iterations 2
smoothSolver:  Solving for k, Initial residual = 0.014034332, Final residual = 0.0009844196, No Iterations 2
ExecutionTime = 5.31 s  ClockTime = 5 s

forceCoeffs forceCoeffs_cl execute:
    Coefficients
        Cd       : 0.029002075	(pressure: 0.011361286	viscous: 0.017640789)
        Cs       : -5.2630377e-05	(pressure: -5.2654889e-05	viscous: 2.4512084e-08)
        Cl       : -9.2750449e-05	(pressure: -9.3333922e-05	viscous: 5.8347213e-07)
        CmRoll       : 1.0886096e-10	(pressure: -4.6938303e-10	viscous: 5.7824399e-10)
        CmPitch       : 4.9173882e-05	(pressure: 4.9341931e-05	viscous: -1.6804958e-07)
        CmYaw       : -3.2217023e-05	(pressure: -3.2343249e-05	viscous: 1.2622601e-07)
        Cd(f)    : 0.014501038
        Cd(r)    : 0.014501037
        Cs(f)    : -5.8532211e-05
        Cs(r)    : 5.9018341e-06
        Cl(f)    : 2.7986569e-06
        Cl(r)    : -9.5549106e-05
forceCoeffs forceCoeffs_cd execute:
    Coefficients
        Cd       : 0.72916579	(pressure: 0.28564373	viscous: 0.44352206)
        Cs       : -0.001323225	(pressure: -0.0013238413	viscous: 6.1627911e-07)
        Cl       : -0.0023319178	(pressure: -0.0023465874	viscous: 1.4669568e-05)
        CmRoll       : 2.7369659e-09	(pressure: -1.1801157e-08	viscous: 1.4538123e-08)
        CmPitch       : 0.0012363223	(pressure: 0.0012405474	viscous: -4.2250772e-06)
        CmYaw       : -0.00080999552	(pressure: -0.00081316907	viscous: 3.1735554e-06)
        Cd(f)    : 0.3645829
        Cd(r)    : 0.36458289
        Cs(f)    : -0.001471608
        Cs(r)    : 0.00014838302
        Cl(f)    : 7.0363408e-05
        Cl(r)    : -0.0024022812
forces force_computation write:
    Sum of forces
        Total    : (3.2090845 -0.010262853 0.0058235601)
        Pressure : (1.2571282 -0.010327414 0.0058262724)
        Viscous  : (1.9519563 6.4561289e-05 -2.7122662e-06)
    Sum of moments
        Total    : (1.3336666e-08 -0.0039469398 -0.0060243416)
        Pressure : (-5.7504586e-08 -0.0039624039 -0.0060449295)
        Viscous  : (7.0841252e-08 1.5464076e-05 2.0587923e-05)


Time = 16

smoothSolver:  Solving for Ux, Initial residual = 0.0062867767, Final residual = 0.00022035016, No Iterations 2
smoothSolver:  Solving for Uy, Initial residual = 0.03801719, Final residual = 0.0014204043, No Iterations 2
smoothSolver:  Solving for Uz, Initial residual = 0.037868506, Final residual = 0.0014750257, No Iterations 2
GAMG:  Solving for p, Initial residual = 0.33076671, Final residual = 0.0021245066, No Iterations 4
GAMG:  Solving for p, Initial residual = 0.010541479, Final residual = 6.1316849e-05, No Iterations 3
GAMG:  Solving for p, Initial residual = 0.001170453, Final residual = 8.2663703e-06, No Iterations 3
GAMG:  Solving for p, Initial residual = 0.00020985275, Final residual = 1.3451178e-06, No Iterations 3
GAMG:  Solving for p, Initial residual = 4.811276e-05, Final residual = 2.9408419e-07, No Iterations 3
GAMG:  Solving for p, Initial residual = 1.2630252e-05, Final residual = 7.7145805e-08, No Iterations 3
time step continuity errors : sum local = 1.1059855e-08, global = 1.269328e-09, cumulative = -1.4572398e-08
smoothSolver:  Solving for omega, Initial residual = 0.0021928037, Final residual = 0.00016393527, No Iterations 2
smoothSolver:  Solving for k, Initial residual = 0.012644107, Final residual = 0.00090274386, No Iterations 2
ExecutionTime = 5.65 s  ClockTime = 5 s

forceCoeffs forceCoeffs_cl execute:
    Coefficients
        Cd       : 0.026017235	(pressure: 0.0082260086	viscous: 0.017791226)
        Cs       : -1.3870463e-06	(pressure: -1.3987104e-06	viscous: 1.1664088e-08)
        Cl       : -3.6314235e-05	(pressure: -3.6860984e-05	viscous: 5.4674838e-07)
        CmRoll       : 9.6083034e-10	(pressure: 3.6627164e-10	viscous: 5.945587e-10)
        CmPitch       : 1.7271524e-05	(pressure: 1.7413262e-05	viscous: -1.4173806e-07)
        CmYaw       : -6.428658e-06	(pressure: -6.554528e-06	viscous: 1.2587007e-07)
        Cd(f)    : 0.013008618
        Cd(r)    : 0.013008617
        Cs(f)    : -7.1221812e-06
        Cs(r)    : 5.7351348e-06
        Cl(f)    : -8.8559336e-07
        Cl(r)    : -3.5428642e-05
forceCoeffs forceCoeffs_cd execute:
    Coefficients
        Cd       : 0.65412139	(pressure: 0.20681707	viscous: 0.44730432)
        Cs       : -3.487291e-05	(pressure: -3.5166166e-05	viscous: 2.9325673e-07)
        Cl       : -0.00091300702	(pressure: -0.00092675328	viscous: 1.3746265e-05)
        CmRoll       : 2.4157051e-08	(pressure: 9.2087463e-09	viscous: 1.4948305e-08)
        CmPitch       : 0.00043423805	(pressure: 0.00043780161	viscous: -3.5635569e-06)
        CmYaw       : -0.00016162835	(pressure: -0.00016479295	viscous: 3.1646062e-06)
        Cd(f)    : 0.32706072
        Cd(r)    : 0.32706067
        Cs(f)    : -0.0001790648
        Cs(r)    : 0.00014419189
        Cl(f)    : -2.2265454e-05
        Cl(r)    : -0.00089074156
forces force_computation write:
    Sum of forces
        Total    : (2.8788114 -0.0040181763 0.00015347691)
        Pressure : (0.91020924 -0.0040786741 0.00015476754)
        Viscous  : (1.9686022 6.0497801e-05 -1.2906333e-06)
    Sum of moments
        Total    : (1.1771229e-07 -0.00078758134 -0.0021159518)
        Pressure : (4.4872307e-08 -0.00080300181 -0.0021333162)
        Viscous  : (7.2839983e-08 1.5420468e-05 1.7364472e-05)


Time = 17

smoothSolver:  Solving for Ux, Initial residual = 0.0050432163, Final residual = 0.000174897, No Iterations 2
smoothSolver:  Solving for Uy, Initial residual = 0.021025232, Final residual = 0.0007573152, No Iterations 2
smoothSolver:  Solving for Uz, Initial residual = 0.020914616, Final residual = 0.00076961962, No Iterations 2
GAMG:  Solving for p, Initial residual = 0.15751074, Final residual = 0.001195008, No Iterations 4
GAMG:  Solving for p, Initial residual = 0.0068638798, Final residual = 4.5475775e-05, No Iterations 3
GAMG:  Solving for p, Initial residual = 0.00087242432, Final residual = 6.9789855e-06, No Iterations 3
GAMG:  Solving for p, Initial residual = 0.00017245058, Final residual = 1.3987238e-06, No Iterations 3
GAMG:  Solving for p, Initial residual = 4.3417767e-05, Final residual = 3.3558968e-07, No Iterations 3
GAMG:  Solving for p, Initial residual = 1.2044727e-05, Final residual = 9.6341279e-08, No Iterations 3
time step continuity errors : sum local = 2.1785539e-08, global = 4.0357559e-10, cumulative = -1.4168823e-08
smoothSolver:  Solving for omega, Initial residual = 0.0020330271, Final residual = 0.00015521812, No Iterations 2
smoothSolver:  Solving for k, Initial residual = 0.01145597, Final residual = 0.00083191991, No Iterations 2
ExecutionTime = 5.98 s  ClockTime = 6 s

forceCoeffs forceCoeffs_cl execute:
    Coefficients
        Cd       : 0.019430384	(pressure: 0.0015094077	viscous: 0.017920977)
        Cs       : 3.5977745e-05	(pressure: 3.5931504e-05	viscous: 4.6240927e-08)
        Cl       : 3.0929644e-05	(pressure: 3.0374069e-05	viscous: 5.5557474e-07)
        CmRoll       : 1.7920821e-09	(pressure: 1.2003607e-09	viscous: 5.9172135e-10)
        CmPitch       : -2.2673917e-05	(pressure: -2.252459e-05	viscous: -1.4932655e-07)
        CmYaw       : 1.4134247e-05	(pressure: 1.3996091e-05	viscous: 1.3815599e-07)
        Cd(f)    : 0.009715194
        Cd(r)    : 0.0097151904
        Cs(f)    : 3.2123119e-05
        Cs(r)    : 3.8546258e-06
        Cl(f)    : -7.2090945e-06
        Cl(r)    : 3.8138739e-05
forceCoeffs forceCoeffs_cd execute:
    Coefficients
        Cd       : 0.48851579	(pressure: 0.0379493	viscous: 0.45056649)
        Cs       : 0.00090454703	(pressure: 0.00090338444	viscous: 1.1625824e-06)
        Cl       : 0.00077762844	(pressure: 0.00076366027	viscous: 1.3968176e-05)
        CmRoll       : 4.5056257e-08	(pressure: 3.0179288e-08	viscous: 1.4876969e-08)
        CmPitch       : -0.00057006419	(pressure: -0.00056630984	viscous: -3.7543456e-06)
        CmYaw       : 0.00035536109	(pressure: 0.0003518876	viscous: 3.473497e-06)
        Cd(f)    : 0.24425794
        Cd(r)    : 0.24425785
        Cs(f)    : 0.00080763461
        Cs(r)    : 9.691242e-05
        Cl(f)    : -0.00018124997
        Cl(r)    : 0.00095887841
forces force_computation write:
    Sum of forces
        Total    : (2.1499753 0.0034223704 -0.0039809435)
        Pressure : (0.16701622 0.0033608959 -0.003975827)
        Viscous  : (1.9829591 6.1474439e-05 -5.1165664e-06)
    Sum of moments
        Total    : (2.1954978e-07 0.0017316007 0.0027778043)
        Pressure : (1.470574e-07 0.0017146751 0.0027595101)
        Viscous  : (7.2492377e-08 1.6925629e-05 1.8294146e-05)


Time = 18

smoothSolver:  Solving for Ux, Initial residual = 0.0038843465, Final residual = 0.00012927886, No Iterations 2
smoothSolver:  Solving for Uy, Initial residual = 0.021412433, Final residual = 0.00073485394, No Iterations 2
smoothSolver:  Solving for Uz, Initial residual = 0.021332659, Final residual = 0.00077072813, No Iterations 2
GAMG:  Solving for p, Initial residual = 0.065630719, Final residual = 0.00045499044, No Iterations 4
GAMG:  Solving for p, Initial residual = 0.0053870215, Final residual = 3.3712702e-05, No Iterations 3
GAMG:  Solving for p, Initial residual = 0.00073610595, Final residual = 5.3975282e-06, No Iterations 3
GAMG:  Solving for p, Initial residual = 0.00013956025, Final residual = 1.1673707e-06, No Iterations 3
GAMG:  Solving for p, Initial residual = 3.5781015e-05, Final residual = 2.8120377e-07, No Iterations 3
GAMG:  Solving for p, Initial residual = 9.4026112e-06, Final residual = 8.4233945e-08, No Iterations 3
time step continuity errors : sum local = 1.652046e-08, global = -2.0668106e-09, cumulative = -1.6235633e-08
smoothSolver:  Solving for omega, Initial residual = 0.001891889, Final residual = 0.00014727035, No Iterations 2
smoothSolver:  Solving for k, Initial residual = 0.010436769, Final residual = 0.00077024533, No Iterations 2
ExecutionTime = 6.31 s  ClockTime = 6 s

forceCoeffs forceCoeffs_cl execute:
    Coefficients
        Cd       : 0.014951084	(pressure: -0.0030803823	viscous: 0.018031466)
        Cs       : 3.5027645e-05	(pressure: 3.4938742e-05	viscous: 8.8903261e-08)
        Cl       : 5.8511431e-05	(pressure: 5.7918393e-05	viscous: 5.9303854e-07)
        CmRoll       : 2.2535976e-09	(pressure: 1.6587286e-09	viscous: 5.9486903e-10)
        CmPitch       : -3.8669504e-05	(pressure: -3.8497325e-05	viscous: -1.721783e-07)
        CmYaw       : 1.6581072e-05	(pressure: 1.6429039e-05	viscous: 1.5203229e-07)
        Cd(f)    : 0.0074755441
        Cd(r)    : 0.0074755396
        Cs(f)    : 3.4094894e-05
        Cs(r)    : 9.3275085e-07
        Cl(f)    : -9.4137881e-06
        Cl(r)    : 6.7925219e-05
forceCoeffs forceCoeffs_cd execute:
    Coefficients
        Cd       : 0.37589789	(pressure: -0.077446507	viscous: 0.4533444)
        Cs       : 0.00088065976	(pressure: 0.00087842457	viscous: 2.2351924e-06)
        Cl       : 0.0014710856	(pressure: 0.0014561755	viscous: 1.4910085e-05)
        CmRoll       : 5.665961e-08	(pressure: 4.1703503e-08	viscous: 1.4956107e-08)
        CmPitch       : -0.00097222282	(pressure: -0.00096789394	viscous: -4.3288809e-06)
        CmYaw       : 0.0004168788	(pressure: 0.00041305643	viscous: 3.8223728e-06)
        Cd(f)    : 0.187949
        Cd(r)    : 0.18794889
        Cs(f)    : 0.00085720868
        Cs(r)    : 2.3451081e-05
        Cl(f)    : -0.00023668004
        Cl(r)    : 0.0017077656
forces force_computation write:
    Sum of forces
        Total    : (1.6543399 0.0064742997 -0.0038758148)
        Pressure : (-0.34084482 0.0064086799 -0.0038659777)
        Viscous  : (1.9951848 6.5619815e-05 -9.8371608e-06)
    Sum of moments
        Total    : (2.760905e-07 0.0020313637 0.0047374397)
        Pressure : (2.032125e-07 0.0020127381 0.004716346)
        Viscous  : (7.2878003e-08 1.8625628e-05 2.1093737e-05)


Time = 19

smoothSolver:  Solving for Ux, Initial residual = 0.0033778675, Final residual = 0.00010914324, No Iterations 2
smoothSolver:  Solving for Uy, Initial residual = 0.02514679, Final residual = 0.00090819214, No Iterations 2
smoothSolver:  Solving for Uz, Initial residual = 0.02508604, Final residual = 0.00095889433, No Iterations 2
GAMG:  Solving for p, Initial residual = 0.0497448, Final residual = 0.00029201658, No Iterations 4
GAMG:  Solving for p, Initial residual = 0.0084223713, Final residual = 4.5450513e-05, No Iterations 3
GAMG:  Solving for p, Initial residual = 0.00097824673, Final residual = 6.2289068e-06, No Iterations 3
GAMG:  Solving for p, Initial residual = 0.00016322663, Final residual = 1.1472266e-06, No Iterations 3
GAMG:  Solving for p, Initial residual = 3.5299707e-05, Final residual = 2.5886208e-07, No Iterations 3
GAMG:  Solving for p, Initial residual = 8.5529333e-06, Final residual = 6.8677154e-08, No Iterations 3
time step continuity errors : sum local = 7.3633847e-09, global = -7.6962975e-10, cumulative = -1.7005263e-08
smoothSolver:  Solving for omega, Initial residual = 0.0017633394, Final residual = 0.00013977021, No Iterations 2
smoothSolver:  Solving for k, Initial residual = 0.0095403246, Final residual = 0.0007152113, No Iterations 2
ExecutionTime = 6.66 s  ClockTime = 6 s

forceCoeffs forceCoeffs_cl execute:
    Coefficients
        Cd       : 0.014848415	(pressure: -0.0032777582	viscous: 0.018126173)
        Cs       : 5.8000902e-06	(pressure: 5.7014949e-06	viscous: 9.8595342e-08)
        Cl       : 4.3634715e-05	(pressure: 4.3002936e-05	viscous: 6.3177879e-07)
        CmRoll       : 2.1875637e-09	(pressure: 1.5913361e-09	viscous: 5.9622767e-10)
        CmPitch       : -2.5955024e-05	(pressure: -2.5771385e-05	viscous: -1.8363979e-07)
        CmYaw       : 4.8765249e-06	(pressure: 4.7177436e-06	viscous: 1.587813e-07)
        Cd(f)    : 0.0074242095
        Cd(r)    : 0.0074242051
        Cs(f)    : 7.77657e-06
        Cs(r)    : -1.9764798e-06
        Cl(f)    : -4.1376668e-06
        Cl(r)    : 4.7772382e-05
forceCoeffs forceCoeffs_cd execute:
    Coefficients
        Cd       : 0.3733166	(pressure: -0.082408902	viscous: 0.4557255)
        Cs       : 0.00014582499	(pressure: 0.00014334612	viscous: 2.4788692e-06)
        Cl       : 0.0010970574	(pressure: 0.0010811733	viscous: 1.5884087e-05)
        CmRoll       : 5.4999397e-08	(pressure: 4.0009131e-08	viscous: 1.4990266e-08)
        CmPitch       : -0.0006525573	(pressure: -0.00064794026	viscous: -4.6170438e-06)
        CmYaw       : 0.00012260485	(pressure: 0.0001186128	viscous: 3.9920556e-06)
        Cd(f)    : 0.18665835
        Cd(r)    : 0.18665824
        Cs(f)    : 0.00019551735
        Cs(r)    : -4.9692356e-05
        Cl(f)    : -0.00010402859
        Cl(r)    : 0.001201086
forces force_computation write:
    Sum of forces
        Total    : (1.6429796 0.0048281886 -0.00064178096)
        Pressure : (-0.3626845 0.0047582822 -0.00063087137)
        Viscous  : (2.0056641 6.990643e-05 -1.0909591e-05)
    Sum of moments
        Total    : (2.6800063e-07 0.00059742796 0.0031797761)
        Pressure : (1.9495618e-07 0.0005779755 0.0031572782)
        Viscous  : (7.3044451e-08 1.9452457e-05 2.2497895e-05)


Time = 20

smoothSolver:  Solving for Ux, Initial residual = 0.0030450286, Final residual = 9.8869978e-05, No Iterations 2
smoothSolver:  Solving for Uy, Initial residual = 0.019006057, Final residual = 0.00070549004, No Iterations 2
smoothSolver:  Solving for Uz, Initial residual = 0.019023091, Final residual = 0.00074587799, No Iterations 2
GAMG:  Solving for p, Initial residual = 0.053820588, Final residual = 0.00032387801, No Iterations 4
GAMG:  Solving for p, Initial residual = 0.025142303, Final residual = 0.00014640313, No Iterations 3
GAMG:  Solving for p, Initial residual = 0.0029380649, Final residual = 1.7372829e-05, No Iterations 3
GAMG:  Solving for p, Initial residual = 0.00049456892, Final residual = 2.9738491e-06, No Iterations 3
GAMG:  Solving for p, Initial residual = 0.00010447959, Final residual = 5.6179168e-07, No Iterations 3
GAMG:  Solving for p, Initial residual = 2.4907026e-05, Final residual = 1.5390669e-07, No Iterations 3
time step continuity errors : sum local = 5.7422488e-09, global = -9.1492777e-10, cumulative = -1.7920191e-08
smoothSolver:  Solving for omega, Initial residual = 0.0016452977, Final residual = 0.00013261719, No Iterations 2
smoothSolver:  Solving for k, Initial residual = 0.008747918, Final residual = 0.00066592507, No Iterations 2
ExecutionTime = 6.99 s  ClockTime = 7 s

forceCoeffs forceCoeffs_cl execute:
    Coefficients
        Cd       : 0.017660202	(pressure: -0.00054778657	viscous: 0.018207989)
        Cs       : -2.3046723e-05	(pressure: -2.3114236e-05	viscous: 6.7512563e-08)
        Cl       : 1.1652238e-05	(pressure: 1.0999836e-05	viscous: 6.5240286e-07)
        CmRoll       : 1.7845487e-09	(pressure: 1.1905469e-09	viscous: 5.9400183e-10)
        CmPitch       : -3.7870645e-06	(pressure: -3.6149719e-06	viscous: -1.7209259e-07)
        CmYaw       : -8.1453997e-06	(pressure: -8.3024836e-06	viscous: 1.570839e-07)
        Cd(f)    : 0.0088301028
        Cd(r)    : 0.0088300992
        Cs(f)    : -1.9668761e-05
        Cs(r)    : -3.3779619e-06
        Cl(f)    : 2.0390548e-06
        Cl(r)    : 9.6131837e-06
forceCoeffs forceCoeffs_cd execute:
    Coefficients
        Cd       : 0.44401013	(pressure: -0.013772367	viscous: 0.4577825)
        Cs       : -0.00057943723	(pressure: -0.00058113462	viscous: 1.6973907e-06)
        Cl       : 0.00029295882	(pressure: 0.00027655621	viscous: 1.6402614e-05)
        CmRoll       : 4.4866855e-08	(pressure: 2.993255e-08	viscous: 1.4934304e-08)
        CmPitch       : -9.5213803e-05	(pressure: -9.0887077e-05	viscous: -4.326726e-06)
        CmYaw       : -0.00020479041	(pressure: -0.00020873979	viscous: 3.9493796e-06)
        Cd(f)    : 0.22200511
        Cd(r)    : 0.22200502
        Cs(f)    : -0.00049450902
        Cs(r)    : -8.4928207e-05
        Cl(f)    : 5.1265607e-05
        Cl(r)    : 0.00024169321
forces force_computation write:
    Sum of forces
        Total    : (1.9541043 0.0012893222 0.0025501238)
        Pressure : (-0.060612677 0.0012171337 0.0025575941)
        Viscous  : (2.014717 7.2188487e-05 -7.4702765e-06)
    Sum of moments
        Total    : (2.1862686e-07 -0.00099790109 0.00046395707)
        Pressure : (1.458551e-07 -0.0010171456 0.00044287384)
        Viscous  : (7.2771761e-08 1.9244506e-05 2.1083236e-05)


Time = 21

smoothSolver:  Solving for Ux, Initial residual = 0.0029986395, Final residual = 9.7627296e-05, No Iterations 2
smoothSolver:  Solving for Uy, Initial residual = 0.014136853, Final residual = 0.0005091854, No Iterations 2
smoothSolver:  Solving for Uz, Initial residual = 0.014178678, Final residual = 0.000521433, No Iterations 2
GAMG:  Solving for p, Initial residual = 0.056461148, Final residual = 0.00032952312, No Iterations 4
GAMG:  Solving for p, Initial residual = 0.026964007, Final residual = 0.00014897131, No Iterations 3
GAMG:  Solving for p, Initial residual = 0.0032104438, Final residual = 1.9216132e-05, No Iterations 3
GAMG:  Solving for p, Initial residual = 0.00057415278, Final residual = 3.6923168e-06, No Iterations 3
GAMG:  Solving for p, Initial residual = 0.00013062183, Final residual = 7.7380607e-07, No Iterations 3
GAMG:  Solving for p, Initial residual = 3.2078416e-05, Final residual = 2.2164837e-07, No Iterations 3
time step continuity errors : sum local = 6.604868e-09, global = -3.1446365e-10, cumulative = -1.8234655e-08
smoothSolver:  Solving for omega, Initial residual = 0.0015361879, Final residual = 0.00012575923, No Iterations 2
smoothSolver:  Solving for k, Initial residual = 0.0080433862, Final residual = 0.00062148761, No Iterations 2
ExecutionTime = 7.36 s  ClockTime = 7 s

forceCoeffs forceCoeffs_cl execute:
    Coefficients
        Cd       : 0.02052173	(pressure: 0.0022439366	viscous: 0.018277793)
        Cs       : -3.1220287e-05	(pressure: -3.1236814e-05	viscous: 1.6527221e-08)
        Cl       : -7.111852e-06	(pressure: -7.7685238e-06	viscous: 6.566718e-07)
        CmRoll       : 1.3716853e-09	(pressure: 7.8247133e-10	viscous: 5.8921402e-10)
        CmPitch       : 1.001851e-05	(pressure: 1.0162579e-05	viscous: -1.4406868e-07)
        CmYaw       : -1.2969656e-05	(pressure: -1.3123509e-05	viscous: 1.5385259e-07)
        Cd(f)    : 0.010260866
        Cd(r)    : 0.010260864
        Cs(f)    : -2.85798e-05
        Cs(r)    : -2.6404869e-06
        Cl(f)    : 6.4625843e-06
        Cl(r)    : -1.3574436e-05
forceCoeffs forceCoeffs_cd execute:
    Coefficients
        Cd       : 0.51595423	(pressure: 0.056416716	viscous: 0.45953752)
        Cs       : -0.00078493573	(pressure: -0.00078535126	viscous: 4.155249e-07)
        Cl       : -0.00017880511	(pressure: -0.00019531505	viscous: 1.6509943e-05)
        CmRoll       : 3.4486706e-08	(pressure: 1.9672776e-08	viscous: 1.481393e-08)
        CmPitch       : 0.00025188387	(pressure: 0.00025550603	viscous: -3.6221529e-06)
        CmYaw       : -0.00032608114	(pressure: -0.00032994928	viscous: 3.8681385e-06)
        Cd(f)    : 0.25797715
        Cd(r)    : 0.25797708
        Cs(f)    : -0.00071854901
        Cs(r)    : -6.6386723e-05
        Cl(f)    : 0.00016248132
        Cl(r)    : -0.00034128643
forces force_computation write:
    Sum of forces
        Total    : (2.2707329 -0.00078692763 0.00345453)
        Pressure : (0.24829197 -0.00085958847 0.0034563587)
        Viscous  : (2.0224409 7.2660845e-05 -1.8287398e-06)
    Sum of moments
        Total    : (1.6804655e-07 -0.0015889256 -0.0012273778)
        Pressure : (9.5861348e-08 -0.0016077743 -0.0012450278)
        Viscous  : (7.2185201e-08 1.8848635e-05 1.7649998e-05)


Time = 22

smoothSolver:  Solving for Ux, Initial residual = 0.0029686252, Final residual = 9.9158447e-05, No Iterations 2
smoothSolver:  Solving for Uy, Initial residual = 0.015551172, Final residual = 0.00054450405, No Iterations 2
smoothSolver:  Solving for Uz, Initial residual = 0.015596362, Final residual = 0.00057775636, No Iterations 2
GAMG:  Solving for p, Initial residual = 0.062150569, Final residual = 0.00036629386, No Iterations 4
GAMG:  Solving for p, Initial residual = 0.010503649, Final residual = 5.8353398e-05, No Iterations 3
GAMG:  Solving for p, Initial residual = 0.0012232004, Final residual = 9.7851979e-06, No Iterations 3
GAMG:  Solving for p, Initial residual = 0.00023266988, Final residual = 1.8432387e-06, No Iterations 3
GAMG:  Solving for p, Initial residual = 5.3743331e-05, Final residual = 4.6549865e-07, No Iterations 3
GAMG:  Solving for p, Initial residual = 1.4350985e-05, Final residual = 1.2615461e-07, No Iterations 3
time step continuity errors : sum local = 6.8520827e-09, global = 1.179951e-09, cumulative = -1.7054704e-08
smoothSolver:  Solving for omega, Initial residual = 0.0014392574, Final residual = 0.00011920883, No Iterations 2
smoothSolver:  Solving for k, Initial residual = 0.0074383235, Final residual = 0.00058121464, No Iterations 2
ExecutionTime = 7.71 s  ClockTime = 7 s

forceCoeffs forceCoeffs_cl execute:
    Coefficients
        Cd       : 0.021562254	(pressure: 0.003227357	viscous: 0.018334897)
        Cs       : -1.7699522e-05	(pressure: -1.7677354e-05	viscous: -2.2168353e-08)
        Cl       : -3.88518e-06	(pressure: -4.5383202e-06	viscous: 6.531402e-07)
        CmRoll       : 1.1195448e-09	(pressure: 5.281666e-10	viscous: 5.9137818e-10)
        CmPitch       : 7.4097023e-06	(pressure: 7.5278196e-06	viscous: -1.1811737e-07)
        CmYaw       : -8.0816386e-06	(pressure: -8.2364293e-06	viscous: 1.5479067e-07)
        Cd(f)    : 0.010781128
        Cd(r)    : 0.010781126
        Cs(f)    : -1.69314e-05
        Cs(r)    : -7.6812259e-07
        Cl(f)    : 5.4671122e-06
        Cl(r)    : -9.3522923e-06
forceCoeffs forceCoeffs_cd execute:
    Coefficients
        Cd       : 0.54211494	(pressure: 0.081141723	viscous: 0.46097322)
        Cs       : -0.00044499872	(pressure: -0.00044444137	viscous: -5.5735337e-07)
        Cl       : -9.768061e-05	(pressure: -0.00011410176	viscous: 1.6421152e-05)
        CmRoll       : 2.8147426e-08	(pressure: 1.3279085e-08	viscous: 1.4868341e-08)
        CmPitch       : 0.00018629361	(pressure: 0.0001892633	viscous: -2.9696891e-06)
        CmYaw       : -0.00020318734	(pressure: -0.00020707906	viscous: 3.8917237e-06)
        Cd(f)    : 0.2710575
        Cd(r)    : 0.27105744
        Cs(f)    : -0.0004256867
        Cs(r)    : -1.9312022e-05
        Cl(f)    : 0.00013745331
        Cl(r)    : -0.00023513392
forces force_computation write:
    Sum of forces
        Total    : (2.3858671 -0.00042989583 0.0019584551)
        Pressure : (0.3571076 -0.0005021659 0.0019560022)
        Viscous  : (2.0287595 7.2270074e-05 2.452932e-06)
    Sum of moments
        Total    : (1.3715655e-07 -0.00099008966 -0.00090777006)
        Pressure : (6.4706221e-08 -0.0010090532 -0.00092224074)
        Viscous  : (7.2450334e-08 1.896356e-05 1.4470678e-05)


Time = 23

smoothSolver:  Solving for Ux, Initial residual = 0.0027607766, Final residual = 9.3220773e-05, No Iterations 2
smoothSolver:  Solving for Uy, Initial residual = 0.012764319, Final residual = 0.00044635059, No Iterations 2
smoothSolver:  Solving for Uz, Initial residual = 0.012805081, Final residual = 0.00047822333, No Iterations 2
GAMG:  Solving for p, Initial residual = 0.067871598, Final residual = 0.00033519327, No Iterations 4
GAMG:  Solving for p, Initial residual = 0.0054590812, Final residual = 2.7583846e-05, No Iterations 3
GAMG:  Solving for p, Initial residual = 0.0006352559, Final residual = 3.8310564e-06, No Iterations 3
GAMG:  Solving for p, Initial residual = 0.00012041709, Final residual = 6.0079543e-07, No Iterations 3
GAMG:  Solving for p, Initial residual = 2.7457237e-05, Final residual = 1.5269191e-07, No Iterations 3
GAMG:  Solving for p, Initial residual = 7.2796815e-06, Final residual = 9.0751376e-08, No Iterations 2
time step continuity errors : sum local = 9.5261043e-09, global = 7.2897169e-10, cumulative = -1.6325732e-08
smoothSolver:  Solving for omega, Initial residual = 0.0013513663, Final residual = 0.00011289987, No Iterations 2
smoothSolver:  Solving for k, Initial residual = 0.006906282, Final residual = 0.00054459334, No Iterations 2
ExecutionTime = 8.03 s  ClockTime = 8 s

forceCoeffs forceCoeffs_cl execute:
    Coefficients
        Cd       : 0.020772961	(pressure: 0.0023944881	viscous: 0.018378473)
        Cs       : 6.8170432e-07	(pressure: 7.1376173e-07	viscous: -3.2057419e-08)
        Cl       : 8.7724573e-06	(pressure: 8.1205138e-06	viscous: 6.5194343e-07)
        CmRoll       : 1.0780777e-09	(pressure: 4.9265075e-10	viscous: 5.8542691e-10)
        CmPitch       : -3.8552246e-06	(pressure: -3.7487147e-06	viscous: -1.0650996e-07)
        CmYaw       : -3.9031427e-07	(pressure: -5.5189862e-07	viscous: 1.6158435e-07)
        Cd(f)    : 0.010386482
        Cd(r)    : 0.010386479
        Cs(f)    : -4.9462116e-08
        Cs(r)    : 7.3116643e-07
        Cl(f)    : 5.3100402e-07
        Cl(r)    : 8.2414533e-06
forceCoeffs forceCoeffs_cd execute:
    Coefficients
        Cd       : 0.52227065	(pressure: 0.060201858	viscous: 0.46206879)
        Cs       : 1.7139307e-05	(pressure: 1.794529e-05	viscous: -8.0598277e-07)
        Cl       : 0.0002205558	(pressure: 0.00020416473	viscous: 1.6391063e-05)
        CmRoll       : 2.7104866e-08	(pressure: 1.2386151e-08	viscous: 1.4718715e-08)
        CmPitch       : -9.6927475e-05	(pressure: -9.4249618e-05	viscous: -2.6778573e-06)
        CmYaw       : -9.8132225e-06	(pressure: -1.3875752e-05	viscous: 4.0625293e-06)
        Cd(f)    : 0.26113535
        Cd(r)    : 0.2611353
        Cs(f)    : -1.2435691e-06
        Cs(r)    : 1.8382876e-05
        Cl(f)    : 1.3350423e-05
        Cl(r)    : 0.00020720537
forces force_computation write:
    Sum of forces
        Total    : (2.2985316 0.00097067388 -7.5430698e-05)
        Pressure : (0.26495051 0.00089853623 -7.8977856e-05)
        Viscous  : (2.0335811 7.2137651e-05 3.5471588e-06)
    Sum of moments
        Total    : (1.3207638e-07 -4.7817794e-05 0.00047230744)
        Pressure : (6.0355138e-08 -6.7613654e-05 0.0004592588)
        Viscous  : (7.1721238e-08 1.9795861e-05 1.3048642e-05)


Time = 24

smoothSolver:  Solving for Ux, Initial residual = 0.0024111424, Final residual = 8.0071851e-05, No Iterations 2
smoothSolver:  Solving for Uy, Initial residual = 0.0088042757, Final residual = 0.00030329411, No Iterations 2
smoothSolver:  Solving for Uz, Initial residual = 0.0088515814, Final residual = 0.00032205101, No Iterations 2
GAMG:  Solving for p, Initial residual = 0.053666096, Final residual = 0.00025654489, No Iterations 4
GAMG:  Solving for p, Initial residual = 0.0041435494, Final residual = 2.1773122e-05, No Iterations 3
GAMG:  Solving for p, Initial residual = 0.00052270213, Final residual = 3.0195941e-06, No Iterations 3
GAMG:  Solving for p, Initial residual = 0.00010221488, Final residual = 5.503882e-07, No Iterations 3
GAMG:  Solving for p, Initial residual = 2.463387e-05, Final residual = 1.28667e-07, No Iterations 3
GAMG:  Solving for p, Initial residual = 6.5321687e-06, Final residual = 8.2953265e-08, No Iterations 2
time step continuity errors : sum local = 1.0827179e-08, global = -2.3145597e-09, cumulative = -1.8640292e-08
smoothSolver:  Solving for omega, Initial residual = 0.0012699485, Final residual = 0.00010681159, No Iterations 2
smoothSolver:  Solving for k, Initial residual = 0.006434714, Final residual = 0.00051145981, No Iterations 2
ExecutionTime = 8.35 s  ClockTime = 8 s

forceCoeffs forceCoeffs_cl execute:
    Coefficients
        Cd       : 0.019371535	(pressure: 0.00096289519	viscous: 0.01840864)
        Cs       : 1.0667207e-05	(pressure: 1.0688071e-05	viscous: -2.0864205e-08)
        Cl       : 1.8967182e-05	(pressure: 1.8311822e-05	viscous: 6.5536002e-07)
        CmRoll       : 1.142815e-09	(pressure: 5.5832212e-10	viscous: 5.8449287e-10)
        CmPitch       : -1.3420255e-05	(pressure: -1.3311231e-05	viscous: -1.090241e-07)
        CmYaw       : 3.4830744e-06	(pressure: 3.3125056e-06	viscous: 1.7056882e-07)
        Cd(f)    : 0.0096857689
        Cd(r)    : 0.0096857666
        Cs(f)    : 8.816678e-06
        Cs(r)    : 1.8505291e-06
        Cl(f)    : -3.9366641e-06
        Cl(r)    : 2.2903846e-05
forceCoeffs forceCoeffs_cd execute:
    Coefficients
        Cd       : 0.48703622	(pressure: 0.024208965	viscous: 0.46282725)
[...]
smoothSolver:  Solving for Uy, Initial residual = 0.00012213168, Final residual = 4.1447593e-06, No Iterations 2
smoothSolver:  Solving for Uz, Initial residual = 0.00012322, Final residual = 4.2251376e-06, No Iterations 2
GAMG:  Solving for p, Initial residual = 0.00028183384, Final residual = 2.1651623e-06, No Iterations 3
GAMG:  Solving for p, Initial residual = 2.3806443e-05, Final residual = 1.6972332e-07, No Iterations 3
GAMG:  Solving for p, Initial residual = 3.4317472e-06, Final residual = 7.3024235e-08, No Iterations 2
GAMG:  Solving for p, Initial residual = 6.8964621e-07, Final residual = 4.2886958e-08, No Iterations 1
GAMG:  Solving for p, Initial residual = 1.6290619e-07, Final residual = 2.1337135e-08, No Iterations 1
GAMG:  Solving for p, Initial residual = 6.160478e-08, Final residual = 6.160478e-08, No Iterations 0
time step continuity errors : sum local = 3.8069903e-09, global = -2.672868e-12, cumulative = 2.8873914e-08
smoothSolver:  Solving for omega, Initial residual = 7.9168873e-06, Final residual = 7.2623014e-07, No Iterations 2
smoothSolver:  Solving for k, Initial residual = 4.2317038e-05, Final residual = 3.8970479e-06, No Iterations 2
ExecutionTime = 89.89 s  ClockTime = 90 s

forceCoeffs forceCoeffs_cl execute:
    Coefficients
        Cd       : 0.013558025	(pressure: 0.00081299567	viscous: 0.012745029)
        Cs       : -4.1159896e-07	(pressure: -2.2451614e-07	viscous: -1.8708282e-07)
        Cl       : 1.2635294e-06	(pressure: 7.0448748e-07	viscous: 5.5904187e-07)
        CmRoll       : 2.0356411e-09	(pressure: 8.1490917e-10	viscous: 1.2207319e-09)
        CmPitch       : -1.5393398e-06	(pressure: -1.6278662e-06	viscous: 8.8526383e-08)
        CmYaw       : -6.0124081e-07	(pressure: -6.5955401e-07	viscous: 5.8313199e-08)
        Cd(f)    : 0.0067790145
        Cd(r)    : 0.0067790104
        Cs(f)    : -8.0704029e-07
        Cs(r)    : 3.9544133e-07
        Cl(f)    : -9.0757513e-07
        Cl(r)    : 2.1711045e-06
forceCoeffs forceCoeffs_cd execute:
    Coefficients
        Cd       : 0.34087381	(pressure: 0.020440214	viscous: 0.3204336)
        Cs       : -1.0348359e-05	(pressure: -5.644751e-06	viscous: -4.7036079e-06)
        Cl       : 3.1767464e-05	(pressure: 1.7712118e-05	viscous: 1.4055346e-05)
        CmRoll       : 5.117978e-08	(pressure: 2.0488323e-08	viscous: 3.0691457e-08)
        CmPitch       : -3.8701849e-05	(pressure: -4.0927566e-05	viscous: 2.2257169e-06)
        CmYaw       : -1.5116306e-05	(pressure: -1.6582407e-05	viscous: 1.4661016e-06)
        Cd(f)    : 0.17043696
        Cd(r)    : 0.17043686
        Cs(f)    : -2.0290485e-05
        Cs(r)    : 9.9421261e-06
        Cl(f)    : -2.2818117e-05
        Cl(r)    : 5.4585581e-05
forces force_computation write:
    Sum of forces
        Total    : (1.5001977 0.00013980974 4.5543494e-05)
        Pressure : (0.089958108 7.7951659e-05 2.4842749e-05)
        Viscous  : (1.4102396 6.1858078e-05 2.0700745e-05)
    Sum of moments
        Total    : (2.4938843e-07 -7.3658615e-05 0.00018858607)
        Pressure : (9.983534e-08 -8.0802623e-05 0.00019943152)
        Viscous  : (1.4955309e-07 7.1440085e-06 -1.0845456e-05)


Time = 315

smoothSolver:  Solving for Ux, Initial residual = 2.8146242e-05, Final residual = 9.3049765e-07, No Iterations 2
smoothSolver:  Solving for Uy, Initial residual = 0.00012042671, Final residual = 4.0706655e-06, No Iterations 2
smoothSolver:  Solving for Uz, Initial residual = 0.00012151778, Final residual = 4.1525085e-06, No Iterations 2
GAMG:  Solving for p, Initial residual = 0.00027851632, Final residual = 2.139275e-06, No Iterations 3
GAMG:  Solving for p, Initial residual = 2.3409873e-05, Final residual = 1.6817207e-07, No Iterations 3
GAMG:  Solving for p, Initial residual = 3.3800668e-06, Final residual = 7.2114268e-08, No Iterations 2
GAMG:  Solving for p, Initial residual = 6.7850249e-07, Final residual = 4.2341832e-08, No Iterations 1
GAMG:  Solving for p, Initial residual = 1.6030509e-07, Final residual = 2.1039841e-08, No Iterations 1
GAMG:  Solving for p, Initial residual = 6.0620768e-08, Final residual = 6.0620768e-08, No Iterations 0
time step continuity errors : sum local = 3.7457171e-09, global = -4.3565072e-13, cumulative = 2.8873479e-08
smoothSolver:  Solving for omega, Initial residual = 7.8173793e-06, Final residual = 7.1709311e-07, No Iterations 2
smoothSolver:  Solving for k, Initial residual = 4.1827206e-05, Final residual = 3.8514858e-06, No Iterations 2
ExecutionTime = 90.15 s  ClockTime = 90 s

forceCoeffs forceCoeffs_cl execute:
    Coefficients
        Cd       : 0.013557537	(pressure: 0.00081292053	viscous: 0.012744617)
        Cs       : -4.1373463e-07	(pressure: -2.2593356e-07	viscous: -1.8780107e-07)
        Cl       : 1.2729557e-06	(pressure: 7.1342642e-07	viscous: 5.595293e-07)
        CmRoll       : 2.0359091e-09	(pressure: 8.1484506e-10	viscous: 1.2210641e-09)
        CmPitch       : -1.5439705e-06	(pressure: -1.6322375e-06	viscous: 8.8266992e-08)
        CmYaw       : -6.0184409e-07	(pressure: -6.5979761e-07	viscous: 5.7953512e-08)
        Cd(f)    : 0.0067787708
        Cd(r)    : 0.0067787667
        Cs(f)    : -8.0871141e-07
        Cs(r)    : 3.9497678e-07
        Cl(f)    : -9.0749263e-07
        Cl(r)    : 2.1804484e-06
forceCoeffs forceCoeffs_cd execute:
    Coefficients
        Cd       : 0.34086156	(pressure: 0.020438325	viscous: 0.32042323)
        Cs       : -1.0402053e-05	(pressure: -5.6803873e-06	viscous: -4.7216661e-06)
        Cl       : 3.2004461e-05	(pressure: 1.7936859e-05	viscous: 1.4067601e-05)
        CmRoll       : 5.118652e-08	(pressure: 2.0486711e-08	viscous: 3.0699808e-08)
        CmPitch       : -3.8818273e-05	(pressure: -4.1037468e-05	viscous: 2.2191954e-06)
        CmYaw       : -1.5131473e-05	(pressure: -1.6588532e-05	viscous: 1.4570584e-06)
        Cd(f)    : 0.17043083
        Cd(r)    : 0.17043073
        Cs(f)    : -2.03325e-05
        Cs(r)    : 9.9304465e-06
        Cl(f)    : -2.2816043e-05
        Cl(r)    : 5.4820503e-05
forces force_computation write:
    Sum of forces
        Total    : (1.5001438 0.00014085277 4.5779806e-05)
        Pressure : (0.089949794 7.8940754e-05 2.4999586e-05)
        Viscous  : (1.410194 6.1912012e-05 2.078022e-05)
    Sum of moments
        Total    : (2.4942127e-07 -7.3732524e-05 0.00018915338)
        Pressure : (9.9827487e-08 -8.0832467e-05 0.00019996705)
        Viscous  : (1.4959378e-07 7.0999429e-06 -1.0813678e-05)


Time = 316

smoothSolver:  Solving for Ux, Initial residual = 2.7743644e-05, Final residual = 9.1582845e-07, No Iterations 2
smoothSolver:  Solving for Uy, Initial residual = 0.00011872063, Final residual = 3.9965482e-06, No Iterations 2
smoothSolver:  Solving for Uz, Initial residual = 0.00011981644, Final residual = 4.0799499e-06, No Iterations 2
GAMG:  Solving for p, Initial residual = 0.00027524047, Final residual = 2.1120313e-06, No Iterations 3
GAMG:  Solving for p, Initial residual = 2.3016192e-05, Final residual = 1.6650042e-07, No Iterations 3
GAMG:  Solving for p, Initial residual = 3.327332e-06, Final residual = 7.1133113e-08, No Iterations 2
GAMG:  Solving for p, Initial residual = 6.6700546e-07, Final residual = 4.1746922e-08, No Iterations 1
GAMG:  Solving for p, Initial residual = 1.5768393e-07, Final residual = 2.0726331e-08, No Iterations 1
GAMG:  Solving for p, Initial residual = 5.9642931e-08, Final residual = 5.9642931e-08, No Iterations 0
time step continuity errors : sum local = 3.6848717e-09, global = 1.4337476e-12, cumulative = 2.8874912e-08
smoothSolver:  Solving for omega, Initial residual = 7.7188749e-06, Final residual = 7.0800957e-07, No Iterations 2
smoothSolver:  Solving for k, Initial residual = 4.134084e-05, Final residual = 3.8061135e-06, No Iterations 2
ExecutionTime = 90.42 s  ClockTime = 90 s

forceCoeffs forceCoeffs_cl execute:
    Coefficients
        Cd       : 0.01355706	(pressure: 0.00081285131	viscous: 0.012744208)
        Cs       : -4.1365138e-07	(pressure: -2.2513869e-07	viscous: -1.8851269e-07)
        Cl       : 1.2818666e-06	(pressure: 7.2185828e-07	viscous: 5.6000834e-07)
        CmRoll       : 2.0361573e-09	(pressure: 8.1478241e-10	viscous: 1.2213749e-09)
        CmPitch       : -1.5483891e-06	(pressure: -1.6363999e-06	viscous: 8.8010784e-08)
        CmYaw       : -6.0157324e-07	(pressure: -6.5916686e-07	viscous: 5.7593622e-08)
        Cd(f)    : 0.0067785319
        Cd(r)    : 0.0067785279
        Cs(f)    : -8.0839893e-07
        Cs(r)    : 3.9474755e-07
        Cl(f)    : -9.0745577e-07
        Cl(r)    : 2.1893224e-06
forceCoeffs forceCoeffs_cd execute:
    Coefficients
        Cd       : 0.34084955	(pressure: 0.020436585	viscous: 0.32041296)
        Cs       : -1.0399961e-05	(pressure: -5.660403e-06	viscous: -4.7395575e-06)
        Cl       : 3.2228497e-05	(pressure: 1.8148852e-05	viscous: 1.4079645e-05)
        CmRoll       : 5.1192759e-08	(pressure: 2.0485136e-08	viscous: 3.0707623e-08)
        CmPitch       : -3.8929364e-05	(pressure: -4.1142118e-05	viscous: 2.2127538e-06)
        CmYaw       : -1.5124663e-05	(pressure: -1.6572674e-05	viscous: 1.4480102e-06)
        Cd(f)    : 0.17042483
        Cd(r)    : 0.17042472
        Cs(f)    : -2.0324644e-05
        Cs(r)    : 9.9246832e-06
        Cl(f)    : -2.2815116e-05
        Cl(r)    : 5.5043613e-05
forces force_computation write:
    Sum of forces
        Total    : (1.500091 0.00014183876 4.5770595e-05)
        Pressure : (0.089942135 7.987374e-05 2.4911635e-05)
        Viscous  : (1.4101488 6.1965017e-05 2.085896e-05)
    Sum of moments
        Total    : (2.4945167e-07 -7.3699341e-05 0.0001896947)
        Pressure : (9.9819811e-08 -8.0755194e-05 0.00020047699)
        Viscous  : (1.4963186e-07 7.0558525e-06 -1.078229e-05)


Time = 317

smoothSolver:  Solving for Ux, Initial residual = 2.7343842e-05, Final residual = 9.0122276e-07, No Iterations 2
smoothSolver:  Solving for Uy, Initial residual = 0.00011702213, Final residual = 3.9227938e-06, No Iterations 2
smoothSolver:  Solving for Uz, Initial residual = 0.00011811274, Final residual = 4.0080691e-06, No Iterations 2
GAMG:  Solving for p, Initial residual = 0.00027195685, Final residual = 2.0835496e-06, No Iterations 3
GAMG:  Solving for p, Initial residual = 2.2621813e-05, Final residual = 1.6466831e-07, No Iterations 3
GAMG:  Solving for p, Initial residual = 3.2757777e-06, Final residual = 7.0073833e-08, No Iterations 2
GAMG:  Solving for p, Initial residual = 6.5528363e-07, Final residual = 4.114904e-08, No Iterations 1
GAMG:  Solving for p, Initial residual = 1.5494496e-07, Final residual = 2.0384426e-08, No Iterations 1
GAMG:  Solving for p, Initial residual = 5.8526203e-08, Final residual = 5.8526203e-08, No Iterations 0
time step continuity errors : sum local = 3.6154895e-09, global = 2.3052723e-12, cumulative = 2.8877218e-08
smoothSolver:  Solving for omega, Initial residual = 7.6211866e-06, Final residual = 6.9898358e-07, No Iterations 2
smoothSolver:  Solving for k, Initial residual = 4.0858046e-05, Final residual = 3.7610814e-06, No Iterations 2
ExecutionTime = 90.69 s  ClockTime = 90 s

forceCoeffs forceCoeffs_cl execute:
    Coefficients
        Cd       : 0.013556593	(pressure: 0.00081278903	viscous: 0.012743804)
        Cs       : -4.1129816e-07	(pressure: -2.2208209e-07	viscous: -1.8921607e-07)
        Cl       : 1.2898169e-06	(pressure: 7.2933813e-07	viscous: 5.6047877e-07)
        CmRoll       : 2.036383e-09	(pressure: 8.1472293e-10	viscous: 1.22166e-09)
        CmPitch       : -1.5524444e-06	(pressure: -1.6402024e-06	viscous: 8.7757928e-08)
        CmYaw       : -6.0036954e-07	(pressure: -6.5760396e-07	viscous: 5.723442e-08)
        Cd(f)    : 0.0067782984
        Cd(r)    : 0.0067782943
        Cs(f)    : -8.0601862e-07
        Cs(r)    : 3.9472046e-07
        Cl(f)    : -9.07536e-07
        Cl(r)    : 2.1973529e-06
forceCoeffs forceCoeffs_cd execute:
    Coefficients
        Cd       : 0.34083781	(pressure: 0.020435019	viscous: 0.32040279)
        Cs       : -1.0340796e-05	(pressure: -5.5835543e-06	viscous: -4.7572419e-06)
        Cl       : 3.2428382e-05	(pressure: 1.8336909e-05	viscous: 1.4091473e-05)
        CmRoll       : 5.1198433e-08	(pressure: 2.0483641e-08	viscous: 3.0714792e-08)
        CmPitch       : -3.9031324e-05	(pressure: -4.123772e-05	viscous: 2.2063966e-06)
        CmYaw       : -1.50944e-05	(pressure: -1.6533379e-05	viscous: 1.4389791e-06)
        Cd(f)    : 0.17041895
        Cd(r)    : 0.17041885
        Cs(f)    : -2.0264798e-05
        Cs(r)    : 9.9240022e-06
        Cl(f)    : -2.2817133e-05
        Cl(r)    : 5.5245514e-05
forces force_computation write:
    Sum of forces
        Total    : (1.5000393 0.00014271846 4.5510211e-05)
        Pressure : (0.089935243 8.0701387e-05 2.4573421e-05)
        Viscous  : (1.410104 6.201707e-05 2.093679e-05)
    Sum of moments
        Total    : (2.4947932e-07 -7.3551875e-05 0.00019019153)
        Pressure : (9.9812524e-08 -8.0563721e-05 0.00020094284)
        Viscous  : (1.496668e-07 7.0118462e-06 -1.0751312e-05)


Time = 318

smoothSolver:  Solving for Ux, Initial residual = 2.6947239e-05, Final residual = 8.8673357e-07, No Iterations 2
smoothSolver:  Solving for Uy, Initial residual = 0.00011531993, Final residual = 3.8493546e-06, No Iterations 2
smoothSolver:  Solving for Uz, Initial residual = 0.00011640598, Final residual = 3.9369543e-06, No Iterations 2
GAMG:  Solving for p, Initial residual = 0.00026866285, Final residual = 2.0543431e-06, No Iterations 3
GAMG:  Solving for p, Initial residual = 2.2217258e-05, Final residual = 1.626747e-07, No Iterations 3
GAMG:  Solving for p, Initial residual = 3.2202976e-06, Final residual = 6.8959897e-08, No Iterations 2
GAMG:  Solving for p, Initial residual = 6.428606e-07, Final residual = 4.0518343e-08, No Iterations 1
GAMG:  Solving for p, Initial residual = 1.5202093e-07, Final residual = 2.0029589e-08, No Iterations 1
GAMG:  Solving for p, Initial residual = 5.7398495e-08, Final residual = 5.7398495e-08, No Iterations 0
time step continuity errors : sum local = 3.5454718e-09, global = 2.8045978e-12, cumulative = 2.8880022e-08
smoothSolver:  Solving for omega, Initial residual = 7.5243593e-06, Final residual = 6.9001048e-07, No Iterations 2
smoothSolver:  Solving for k, Initial residual = 4.0378827e-05, Final residual = 3.7162948e-06, No Iterations 2
ExecutionTime = 90.95 s  ClockTime = 91 s

forceCoeffs forceCoeffs_cl execute:
    Coefficients
        Cd       : 0.013556137	(pressure: 0.00081273454	viscous: 0.012743402)
        Cs       : -4.0646119e-07	(pressure: -2.1655202e-07	viscous: -1.8990918e-07)
        Cl       : 1.296561e-06	(pressure: 7.3562124e-07	viscous: 5.6093972e-07)
        CmRoll       : 2.0365964e-09	(pressure: 8.1467299e-10	viscous: 1.2219234e-09)
        CmPitch       : -1.5560264e-06	(pressure: -1.6435352e-06	viscous: 8.7508787e-08)
        CmYaw       : -5.9812664e-07	(pressure: -6.5500389e-07	viscous: 5.6877256e-08)
        Cd(f)    : 0.0067780705
        Cd(r)    : 0.0067780664
        Cs(f)    : -8.0135723e-07
        Cs(r)    : 3.9489604e-07
        Cl(f)    : -9.0774591e-07
        Cl(r)    : 2.2043069e-06
forceCoeffs forceCoeffs_cd execute:
    Coefficients
        Cd       : 0.34082634	(pressure: 0.020433649	viscous: 0.3203927)
        Cs       : -1.0219186e-05	(pressure: -5.4445181e-06	viscous: -4.7746678e-06)
        Cl       : 3.259794e-05	(pressure: 1.8494878e-05	viscous: 1.4103062e-05)
        CmRoll       : 5.1203799e-08	(pressure: 2.0482385e-08	viscous: 3.0721414e-08)
        CmPitch       : -3.912138e-05	(pressure: -4.1321513e-05	viscous: 2.2001327e-06)
        CmYaw       : -1.503801e-05	(pressure: -1.6468009e-05	viscous: 1.4299994e-06)
        Cd(f)    : 0.17041322
        Cd(r)    : 0.17041312
        Cs(f)    : -2.0147602e-05
        Cs(r)    : 9.9284165e-06
        Cl(f)    : -2.2822411e-05
        Cl(r)    : 5.542035e-05
forces force_computation write:
    Sum of forces
        Total    : (1.4999888 0.00014346469 4.4975e-05)
        Pressure : (0.089929214 8.1396615e-05 2.3961517e-05)
        Viscous  : (1.4100596 6.2068074e-05 2.1013483e-05)
    Sum of moments
        Total    : (2.4950547e-07 -7.3277095e-05 0.00019063036)
        Pressure : (9.9806405e-08 -8.0245184e-05 0.00020135114)
        Viscous  : (1.4969906e-07 6.9680897e-06 -1.0720789e-05)


Time = 319

smoothSolver:  Solving for Ux, Initial residual = 2.6553524e-05, Final residual = 8.7237983e-07, No Iterations 2
smoothSolver:  Solving for Uy, Initial residual = 0.00011361968, Final residual = 3.7766382e-06, No Iterations 2
smoothSolver:  Solving for Uz, Initial residual = 0.00011469872, Final residual = 3.8662555e-06, No Iterations 2
GAMG:  Solving for p, Initial residual = 0.00026535896, Final residual = 2.0243268e-06, No Iterations 3
GAMG:  Solving for p, Initial residual = 2.1809454e-05, Final residual = 1.6043174e-07, No Iterations 3
GAMG:  Solving for p, Initial residual = 3.1642644e-06, Final residual = 6.7760303e-08, No Iterations 2
GAMG:  Solving for p, Initial residual = 6.3051892e-07, Final residual = 3.9869625e-08, No Iterations 1
GAMG:  Solving for p, Initial residual = 1.4921216e-07, Final residual = 1.9667954e-08, No Iterations 1
GAMG:  Solving for p, Initial residual = 5.6264212e-08, Final residual = 5.6264212e-08, No Iterations 0
time step continuity errors : sum local = 3.4750877e-09, global = 3.8654755e-12, cumulative = 2.8883888e-08
smoothSolver:  Solving for omega, Initial residual = 7.4285965e-06, Final residual = 6.8111682e-07, No Iterations 2
smoothSolver:  Solving for k, Initial residual = 3.9903574e-05, Final residual = 3.6717337e-06, No Iterations 2
ExecutionTime = 91.22 s  ClockTime = 91 s

forceCoeffs forceCoeffs_cl execute:
    Coefficients
        Cd       : 0.013555693	(pressure: 0.00081268874	viscous: 0.012743004)
        Cs       : -3.9917496e-07	(pressure: -2.0858506e-07	viscous: -1.905899e-07)
        Cl       : 1.3023706e-06	(pressure: 7.4097779e-07	viscous: 5.6139281e-07)
        CmRoll       : 2.0368018e-09	(pressure: 8.1463335e-10	viscous: 1.2221685e-09)
        CmPitch       : -1.5591998e-06	(pressure: -1.6464627e-06	viscous: 8.7262912e-08)
        CmYaw       : -5.9483075e-07	(pressure: -6.5135405e-07	viscous: 5.6523293e-08)
        Cd(f)    : 0.0067778485
        Cd(r)    : 0.0067778445
        Cs(f)    : -7.9441824e-07
        Cs(r)    : 3.9524327e-07
        Cl(f)    : -9.0801451e-07
        Cl(r)    : 2.2103851e-06
forceCoeffs forceCoeffs_cd execute:
    Coefficients
        Cd       : 0.34081518	(pressure: 0.020432497	viscous: 0.32038269)
        Cs       : -1.0035997e-05	(pressure: -5.2442141e-06	viscous: -4.7917825e-06)
        Cl       : 3.2744005e-05	(pressure: 1.8629552e-05	viscous: 1.4114453e-05)
        CmRoll       : 5.1208964e-08	(pressure: 2.0481389e-08	viscous: 3.0727576e-08)
        CmPitch       : -3.9201166e-05	(pressure: -4.1395117e-05	viscous: 2.1939509e-06)
        CmYaw       : -1.4955145e-05	(pressure: -1.6376245e-05	viscous: 1.4211001e-06)
        Cd(f)    : 0.17040764
        Cd(r)    : 0.17040754
        Cs(f)    : -1.9973143e-05
        Cs(r)    : 9.9371466e-06
        Cl(f)    : -2.2829164e-05
        Cl(r)    : 5.5573168e-05
forces force_computation write:
    Sum of forces
        Total    : (1.4999397 0.00014410753 4.4168777e-05)
        Pressure : (0.089924146 8.1989317e-05 2.3079972e-05)
        Viscous  : (1.4100156 6.2118209e-05 2.1088805e-05)
    Sum of moments
        Total    : (2.4953064e-07 -7.2873313e-05 0.00019101913)
        Pressure : (9.9801549e-08 -7.9798038e-05 0.0002017098)
        Viscous  : (1.4972909e-07 6.9247254e-06 -1.0690667e-05)


Time = 320

smoothSolver:  Solving for Ux, Initial residual = 2.6163031e-05, Final residual = 8.5812363e-07, No Iterations 2
smoothSolver:  Solving for Uy, Initial residual = 0.00011192848, Final residual = 3.7046158e-06, No Iterations 2
smoothSolver:  Solving for Uz, Initial residual = 0.0001130007, Final residual = 3.7962667e-06, No Iterations 2
