/*---------------------------------------------------------------------------*\
| =========                 |                                                 |
| \\      /  F ield         | OpenFOAM: The Open Source CFD Toolbox           |
|  \\    /   O peration     | Version:  2112                                  |
|   \\  /    A nd           | Website:  www.openfoam.com                      |
|    \\/     M anipulation  |                                                 |
\*---------------------------------------------------------------------------*/
Build  : _d44c8318-20220111 OPENFOAM=2112 version=2112
Arch   : "LSB;label=32;scalar=64"
Exec   : simpleFoam -parallel -decomposeParDict system/decomposeParDict.6
Date   : Jul 01 2022
Time   : 16:05:47
Host   : 1c9eb7219079
PID    : 545
I/O    : uncollated
Case   : /home/aimed_user/dexof_work/dir_rough_mesh_8cores_swordfish1_aoa_0
nProcs : 8
Hosts  :
(
    (1c9eb7219079 8)
)
Pstream initialized with:
    floatTransfer      : 0
    nProcsSimpleSum    : 0
    commsType          : nonBlocking
    polling iterations : 0
trapFpe: Floating point exception trapping enabled (FOAM_SIGFPE).
fileModificationChecking : Monitoring run-time modified files using timeStampMaster (fileModificationSkew 5, maxFileModificationPolls 20)
allowSystemOperations : Allowing user-supplied system call operations

// * * * * * * * * * * * * * * * * * * * * * * * * * * * * * * * * * * * * * //
Create time

Create mesh for time = 0


SIMPLE: convergence criteria
    field p	 tolerance 0.0001
    field U	 tolerance 0.0001
    field "(k|epsilon|omega|f|v2|nuTilda)"	 tolerance 0.0001

Reading field p

Reading field U

Reading/calculating face flux field phi

Selecting incompressible transport model Newtonian
Selecting turbulence model type RAS
Selecting RAS turbulence model kOmegaSST
Selecting patchDistMethod meshWave
RAS
{
    RASModel        kOmegaSST;
    turbulence      on;
    printCoeffs     on;
    alphaK1         0.85;
    alphaK2         1;
    alphaOmega1     0.5;
    alphaOmega2     0.856;
    gamma1          0.55555556;
    gamma2          0.44;
    beta1           0.075;
    beta2           0.0828;
    betaStar        0.09;
    a1              0.31;
    b1              1;
    c1              10;
    F3              false;
    decayControl    false;
    kInf            0;
    omegaInf        0;
}

No MRF models present

No finite volume options present

Starting time loop

forceCoeffs forceCoeffs_cl:
    p: p
    U: U
    rho: rhoInf
    Freestream density (rhoInf) set to 1027
    Not including porosity effects
    Fields will be written

forceCoeffs forceCoeffs_cd:
    p: p
    U: U
    rho: rhoInf
    Freestream density (rhoInf) set to 1027
    Not including porosity effects

forces force_computation:
    p: p
    U: U
    rho: rhoInf
    Freestream density (rhoInf) set to 1027
    Not including porosity effects

Time = 1

smoothSolver:  Solving for Ux, Initial residual = 1, Final residual = 0.083438768, No Iterations 2
smoothSolver:  Solving for Uy, Initial residual = 1, Final residual = 0.05424787, No Iterations 3
smoothSolver:  Solving for Uz, Initial residual = 1, Final residual = 0.05462431, No Iterations 3
GAMG:  Solving for p, Initial residual = 1, Final residual = 0.0046342938, No Iterations 8
GAMG:  Solving for p, Initial residual = 0.0022614766, Final residual = 1.1123754e-05, No Iterations 3
GAMG:  Solving for p, Initial residual = 0.00029595075, Final residual = 2.0856004e-06, No Iterations 3
GAMG:  Solving for p, Initial residual = 5.9645761e-05, Final residual = 5.3601861e-07, No Iterations 3
GAMG:  Solving for p, Initial residual = 1.6518088e-05, Final residual = 1.4817221e-07, No Iterations 3
GAMG:  Solving for p, Initial residual = 4.9411763e-06, Final residual = 9.0292173e-08, No Iterations 2
time step continuity errors : sum local = 7.7397164e-07, global = 1.300787e-07, cumulative = 1.300787e-07
smoothSolver:  Solving for omega, Initial residual = 0.088850396, Final residual = 0.0032912819, No Iterations 2
smoothSolver:  Solving for k, Initial residual = 1, Final residual = 0.040655773, No Iterations 2
ExecutionTime = 0.41 s  ClockTime = 1 s

forceCoeffs forceCoeffs_cl execute:
    Coefficients
        Cd       : 1.5608299	(pressure: 1.5485396	viscous: 0.012290288)
        Cs       : -2.426312e-05	(pressure: -2.4247665e-05	viscous: -1.5455549e-08)
        Cl       : -1.3151255e-05	(pressure: -1.3195202e-05	viscous: 4.394676e-08)
        CmRoll       : -1.0295428e-08	(pressure: -1.0268751e-08	viscous: -2.6677547e-11)
        CmPitch       : -1.6668035e-05	(pressure: -1.6662055e-05	viscous: -5.979632e-09)
        CmYaw       : 6.501494e-06	(pressure: 6.4977024e-06	viscous: 3.7916175e-09)
        Cd(f)    : 0.78041495
        Cd(r)    : 0.78041497
        Cs(f)    : -5.6300661e-06
        Cs(r)    : -1.8633054e-05
        Cl(f)    : -2.3243663e-05
        Cl(r)    : 1.0092407e-05
forceCoeffs forceCoeffs_cd execute:
    Coefficients
        Cd       : 13.352341	(pressure: 13.247202	viscous: 0.10513901)
        Cs       : -0.0002075623	(pressure: -0.00020743008	viscous: -1.3221668e-07)
        Cl       : -0.00011250427	(pressure: -0.00011288022	viscous: 3.7594878e-07)
        CmRoll       : -8.8073701e-08	(pressure: -8.7845484e-08	viscous: -2.2821686e-10)
        CmPitch       : -0.00014258907	(pressure: -0.00014253791	viscous: -5.1153609e-08)
        CmYaw       : 5.5617951e-05	(pressure: 5.5585515e-05	viscous: 3.2435929e-08)
        Cd(f)    : 6.6761702
        Cd(r)    : 6.6761704
        Cs(f)    : -4.8163198e-05
        Cs(r)    : -0.0001593991
        Cl(f)    : -0.0001988412
        Cl(r)    : 8.6336929e-05
forces force_computation write:
    Sum of forces
        Total    : (785.47755 -0.0066182839 0.012210258)
        Pressure : (779.29254 -0.0066403999 0.01220248)
        Viscous  : (6.185008 2.2115922e-05 7.777905e-06)
    Sum of moments
        Total    : (-6.8908732e-06 0.0043515402 0.011156147)
        Pressure : (-6.8730176e-06 0.0043490024 0.011152145)
        Viscous  : (-1.7855653e-08 2.5377823e-06 4.0022507e-06)


Time = 2

smoothSolver:  Solving for Ux, Initial residual = 0.15897254, Final residual = 0.0066826039, No Iterations 2
smoothSolver:  Solving for Uy, Initial residual = 0.54856339, Final residual = 0.023299789, No Iterations 2
smoothSolver:  Solving for Uz, Initial residual = 0.54852429, Final residual = 0.023802995, No Iterations 2
GAMG:  Solving for p, Initial residual = 0.010438004, Final residual = 5.6200719e-05, No Iterations 5
GAMG:  Solving for p, Initial residual = 0.0018006833, Final residual = 1.4527243e-05, No Iterations 3
GAMG:  Solving for p, Initial residual = 0.00026014801, Final residual = 2.21334e-06, No Iterations 3
GAMG:  Solving for p, Initial residual = 5.4035316e-05, Final residual = 5.3733773e-07, No Iterations 3
GAMG:  Solving for p, Initial residual = 1.4284078e-05, Final residual = 1.0292979e-07, No Iterations 3
GAMG:  Solving for p, Initial residual = 3.9994437e-06, Final residual = 7.6498129e-08, No Iterations 2
time step continuity errors : sum local = 2.152994e-07, global = 3.2493865e-08, cumulative = 1.6257257e-07
smoothSolver:  Solving for omega, Initial residual = 0.047865933, Final residual = 0.0021582663, No Iterations 2
smoothSolver:  Solving for k, Initial residual = 0.28090019, Final residual = 0.013270643, No Iterations 2
ExecutionTime = 0.68 s  ClockTime = 1 s

forceCoeffs forceCoeffs_cl execute:
    Coefficients
        Cd       : 1.3426627	(pressure: 1.3306368	viscous: 0.012025865)
        Cs       : -4.645859e-05	(pressure: -4.6548909e-05	viscous: 9.0318912e-08)
        Cl       : 2.6227892e-05	(pressure: 2.6215192e-05	viscous: 1.2700755e-08)
        CmRoll       : -1.4123936e-08	(pressure: -1.5569599e-08	viscous: 1.4456627e-09)
        CmPitch       : -2.0610934e-06	(pressure: -2.0969721e-06	viscous: 3.5878704e-08)
        CmYaw       : -1.348206e-06	(pressure: -1.3330979e-06	viscous: -1.5108145e-08)
        Cd(f)    : 0.67133132
        Cd(r)    : 0.67133135
        Cs(f)    : -2.4577501e-05
        Cs(r)    : -2.1881089e-05
        Cl(f)    : 1.1052853e-05
        Cl(r)    : 1.517504e-05
forceCoeffs forceCoeffs_cd execute:
    Coefficients
        Cd       : 11.485998	(pressure: 11.383121	viscous: 0.10287696)
        Cs       : -0.00039743659	(pressure: -0.00039820923	viscous: 7.7264593e-07)
        Cl       : 0.00022437022	(pressure: 0.00022426157	viscous: 1.0865041e-07)
        CmRoll       : -1.2082521e-07	(pressure: -1.3319234e-07	viscous: 1.2367126e-08)
        CmPitch       : -1.7631916e-05	(pressure: -1.7938845e-05	viscous: 3.0692945e-07)
        CmYaw       : -1.1533419e-05	(pressure: -1.1404175e-05	viscous: -1.2924477e-07)
        Cd(f)    : 5.7429988
        Cd(r)    : 5.7429991
        Cs(f)    : -0.00021025171
        Cs(r)    : -0.00018718487
        Cl(f)    : 9.4553195e-05
        Cl(r)    : 0.00012981703
forces force_computation write:
    Sum of forces
        Total    : (675.68629 0.013199017 0.023379984)
        Pressure : (669.63435 0.013192625 0.023425437)
        Viscous  : (6.0519385 6.3915726e-06 -4.5452408e-05)
    Sum of moments
        Total    : (-9.4533467e-06 -0.00090237301 0.0013795184)
        Pressure : (-1.0420949e-05 -0.00089226092 0.0014035326)
        Viscous  : (9.6760211e-07 -1.0112091e-05 -2.4014115e-05)


Time = 3

smoothSolver:  Solving for Ux, Initial residual = 0.036213805, Final residual = 0.0015161633, No Iterations 2
smoothSolver:  Solving for Uy, Initial residual = 0.26167514, Final residual = 0.011042498, No Iterations 2
smoothSolver:  Solving for Uz, Initial residual = 0.26178051, Final residual = 0.011269236, No Iterations 2
GAMG:  Solving for p, Initial residual = 0.019845975, Final residual = 0.00018681043, No Iterations 5
GAMG:  Solving for p, Initial residual = 0.0083392844, Final residual = 5.0826005e-05, No Iterations 3
GAMG:  Solving for p, Initial residual = 0.0012176375, Final residual = 1.0614026e-05, No Iterations 3
GAMG:  Solving for p, Initial residual = 0.00028968493, Final residual = 2.4444512e-06, No Iterations 3
GAMG:  Solving for p, Initial residual = 8.8555683e-05, Final residual = 7.0859629e-07, No Iterations 3
GAMG:  Solving for p, Initial residual = 2.6991071e-05, Final residual = 1.8511946e-07, No Iterations 3
time step continuity errors : sum local = 3.7307211e-07, global = -8.9143076e-08, cumulative = 7.3429494e-08
smoothSolver:  Solving for omega, Initial residual = 0.028292783, Final residual = 0.001478298, No Iterations 2
smoothSolver:  Solving for k, Initial residual = 0.13520173, Final residual = 0.007135512, No Iterations 2
ExecutionTime = 0.94 s  ClockTime = 1 s

forceCoeffs forceCoeffs_cl execute:
    Coefficients
        Cd       : 0.35432774	(pressure: 0.34284217	viscous: 0.011485571)
        Cs       : -6.7320078e-05	(pressure: -6.7420568e-05	viscous: 1.0049059e-07)
        Cl       : 6.0497246e-05	(pressure: 6.0036313e-05	viscous: 4.6093373e-07)
        CmRoll       : -7.3730858e-09	(pressure: -1.0354849e-08	viscous: 2.9817634e-09)
        CmPitch       : 9.8484372e-06	(pressure: 9.9735783e-06	viscous: -1.2514112e-07)
        CmYaw       : -1.9409367e-05	(pressure: -1.9377271e-05	viscous: -3.2095905e-08)
        Cd(f)    : 0.17716386
        Cd(r)    : 0.17716388
        Cs(f)    : -5.3069406e-05
        Cs(r)    : -1.4250671e-05
        Cl(f)    : 4.009706e-05
        Cl(r)    : 2.0400186e-05
forceCoeffs forceCoeffs_cd execute:
    Coefficients
        Cd       : 3.0311468	(pressure: 2.9328919	viscous: 0.098254946)
        Cs       : -0.00057589914	(pressure: -0.0005767588	viscous: 8.5966102e-07)
        Cl       : 0.00051753226	(pressure: 0.00051358914	viscous: 3.9431229e-06)
        CmRoll       : -6.3074107e-08	(pressure: -8.8582025e-08	viscous: 2.5507918e-08)
        CmPitch       : 8.4249851e-05	(pressure: 8.5320388e-05	viscous: -1.0705374e-06)
        CmYaw       : -0.00016604018	(pressure: -0.00016576561	viscous: -2.7456897e-07)
        Cd(f)    : 1.5155734
        Cd(r)    : 1.5155735
        Cs(f)    : -0.00045398975
        Cs(r)    : -0.00012190939
        Cl(f)    : 0.00034301598
        Cl(r)    : 0.00017451628
forces force_computation write:
    Sum of forces
        Total    : (178.31314 0.030444847 0.033878393)
        Pressure : (172.5331 0.030212885 0.033928964)
        Viscous  : (5.7800393 0.00023196191 -5.057124e-05)
    Sum of moments
        Total    : (-4.9349087e-06 -0.012990959 -0.0065916957)
        Pressure : (-6.9306444e-06 -0.012969477 -0.0066754544)
        Viscous  : (1.9957357e-06 -2.1482235e-05 8.3758688e-05)


Time = 4

smoothSolver:  Solving for Ux, Initial residual = 0.0073927335, Final residual = 0.00028103891, No Iterations 2
smoothSolver:  Solving for Uy, Initial residual = 0.068358154, Final residual = 0.0026518114, No Iterations 2
smoothSolver:  Solving for Uz, Initial residual = 0.068262716, Final residual = 0.0026733907, No Iterations 2
GAMG:  Solving for p, Initial residual = 0.030590697, Final residual = 0.00017145573, No Iterations 6
GAMG:  Solving for p, Initial residual = 0.0038243986, Final residual = 2.1311627e-05, No Iterations 3
GAMG:  Solving for p, Initial residual = 0.00054745785, Final residual = 4.3120519e-06, No Iterations 3
GAMG:  Solving for p, Initial residual = 0.0001290495, Final residual = 1.1422589e-06, No Iterations 3
GAMG:  Solving for p, Initial residual = 3.8560797e-05, Final residual = 3.2684679e-07, No Iterations 3
GAMG:  Solving for p, Initial residual = 1.2006719e-05, Final residual = 9.7963784e-08, No Iterations 3
time step continuity errors : sum local = 3.9240103e-07, global = -9.3265001e-08, cumulative = -1.9835507e-08
smoothSolver:  Solving for omega, Initial residual = 0.01717052, Final residual = 0.00097314393, No Iterations 2
smoothSolver:  Solving for k, Initial residual = 0.078416095, Final residual = 0.00449179, No Iterations 2
ExecutionTime = 1.21 s  ClockTime = 2 s

forceCoeffs forceCoeffs_cl execute:
    Coefficients
        Cd       : -0.67796406	(pressure: -0.68941948	viscous: 0.011455416)
        Cs       : -6.5221326e-05	(pressure: -6.5089585e-05	viscous: -1.3174048e-07)
        Cl       : 4.2871925e-06	(pressure: 2.334553e-06	viscous: 1.9526395e-06)
        CmRoll       : -1.858591e-10	(pressure: -3.2610048e-09	viscous: 3.0751457e-09)
        CmPitch       : 2.0435074e-05	(pressure: 2.109667e-05	viscous: -6.6159558e-07)
        CmYaw       : -2.5471037e-05	(pressure: -2.5436285e-05	viscous: -3.4751509e-08)
        Cd(f)    : -0.33898203
        Cd(r)    : -0.33898203
        Cs(f)    : -5.80817e-05
        Cs(r)    : -7.1396258e-06
        Cl(f)    : 2.257867e-05
        Cl(r)    : -1.8291478e-05
forceCoeffs forceCoeffs_cd execute:
    Coefficients
        Cd       : -5.7997396	(pressure: -5.8977366	viscous: 0.097996975)
        Cs       : -0.00055794507	(pressure: -0.00055681807	viscous: -1.1269926e-06)
        Cl       : 3.6675396e-05	(pressure: 1.9971264e-05	viscous: 1.6704131e-05)
        CmRoll       : -1.589958e-09	(pressure: -2.7896727e-08	viscous: 2.6306769e-08)
        CmPitch       : 0.00017481474	(pressure: 0.00018047445	viscous: -5.6597131e-06)
        CmYaw       : -0.00021789559	(pressure: -0.00021759831	viscous: -2.9728671e-07)
        Cd(f)    : -2.8998698
        Cd(r)    : -2.8998698
        Cs(f)    : -0.00049686813
        Cs(r)    : -6.107694e-05
        Cl(f)    : 0.00019315243
        Cl(r)    : -0.00015647704
forces force_computation write:
    Sum of forces
        Total    : (-341.18102 0.0021575019 0.03282221)
        Pressure : (-346.94589 0.0011748487 0.032755912)
        Viscous  : (5.7648637 0.0009826532 6.6297541e-05)
    Sum of moments
        Total    : (-1.2439808e-07 -0.017048119 -0.013677479)
        Pressure : (-2.1826358e-06 -0.017024859 -0.014120294)
        Viscous  : (2.0582377e-06 -2.3259668e-05 0.00044281511)


Time = 5

smoothSolver:  Solving for Ux, Initial residual = 0.011687013, Final residual = 0.00042625441, No Iterations 2
smoothSolver:  Solving for Uy, Initial residual = 0.15074475, Final residual = 0.005887744, No Iterations 2
smoothSolver:  Solving for Uz, Initial residual = 0.15062222, Final residual = 0.006067271, No Iterations 2
GAMG:  Solving for p, Initial residual = 0.077714611, Final residual = 0.00069886317, No Iterations 5
GAMG:  Solving for p, Initial residual = 0.002129357, Final residual = 1.8400114e-05, No Iterations 3
GAMG:  Solving for p, Initial residual = 0.00031818114, Final residual = 1.6234688e-06, No Iterations 4
GAMG:  Solving for p, Initial residual = 6.9129026e-05, Final residual = 5.1271655e-07, No Iterations 3
GAMG:  Solving for p, Initial residual = 1.7490465e-05, Final residual = 1.7195857e-07, No Iterations 3
GAMG:  Solving for p, Initial residual = 5.0523875e-06, Final residual = 5.0995898e-08, No Iterations 3
time step continuity errors : sum local = 1.4461005e-07, global = -5.2639227e-08, cumulative = -7.2474734e-08
smoothSolver:  Solving for omega, Initial residual = 0.010531962, Final residual = 0.00064269414, No Iterations 2
smoothSolver:  Solving for k, Initial residual = 0.052113699, Final residual = 0.0031781122, No Iterations 2
ExecutionTime = 1.47 s  ClockTime = 2 s

forceCoeffs forceCoeffs_cl execute:
    Coefficients
        Cd       : -1.128805	(pressure: -1.1407314	viscous: 0.011926439)
        Cs       : -0.00025066939	(pressure: -0.0002495726	viscous: -1.0967939e-06)
        Cl       : 0.00046944406	(pressure: 0.00046567027	viscous: 3.7737885e-06)
        CmRoll       : -3.434803e-09	(pressure: -4.7449939e-09	viscous: 1.3101909e-09)
        CmPitch       : -0.0001113694	(pressure: -0.00010999343	viscous: -1.3759712e-06)
        CmYaw       : -7.2629463e-05	(pressure: -7.2313787e-05	viscous: -3.1567565e-07)
        Cd(f)    : -0.56440251
        Cd(r)    : -0.5644025
        Cs(f)    : -0.00019796416
        Cs(r)    : -5.2705233e-05
        Cl(f)    : 0.00012335263
        Cl(r)    : 0.00034609143
forceCoeffs forceCoeffs_cd execute:
    Coefficients
        Cd       : -9.6565223	(pressure: -9.7585487	viscous: 0.10202641)
        Cs       : -0.0021443868	(pressure: -0.0021350041	viscous: -9.3826788e-06)
        Cl       : 0.0040159257	(pressure: 0.0039836423	viscous: 3.2283408e-05)
        CmRoll       : -2.9383509e-08	(pressure: -4.0591722e-08	viscous: 1.1208214e-08)
        CmPitch       : -0.00095272531	(pressure: -0.00094095437	viscous: -1.177094e-05)
        CmYaw       : -0.00062131903	(pressure: -0.00061861853	viscous: -2.7004921e-06)
        Cd(f)    : -4.8282612
        Cd(r)    : -4.8282611
        Cs(f)    : -0.0016935124
        Cs(r)    : -0.00045087438
        Cl(f)    : 0.0010552375
        Cl(r)    : 0.0029606881
forces force_computation write:
    Sum of forces
        Total    : (-568.06381 0.23624468 0.12614775)
        Pressure : (-574.06571 0.23434555 0.12559579)
        Viscous  : (6.001903 0.0018991346 0.00055195443)
    Sum of moments
        Total    : (-2.2989613e-06 -0.048611908 0.074541086)
        Pressure : (-3.1758903e-06 -0.048400622 0.073620129)
        Viscous  : (8.7692898e-07 -0.0002112861 0.0009209566)


Time = 6

smoothSolver:  Solving for Ux, Initial residual = 0.019652796, Final residual = 0.00075250493, No Iterations 2
smoothSolver:  Solving for Uy, Initial residual = 0.2498637, Final residual = 0.010144891, No Iterations 2
smoothSolver:  Solving for Uz, Initial residual = 0.24970414, Final residual = 0.010446074, No Iterations 2
GAMG:  Solving for p, Initial residual = 0.030945684, Final residual = 0.00025885159, No Iterations 5
GAMG:  Solving for p, Initial residual = 0.022201537, Final residual = 0.00017696336, No Iterations 3
GAMG:  Solving for p, Initial residual = 0.0027841824, Final residual = 1.304599e-05, No Iterations 4
GAMG:  Solving for p, Initial residual = 0.00061624037, Final residual = 4.3464615e-06, No Iterations 3
GAMG:  Solving for p, Initial residual = 0.00015865487, Final residual = 1.2072086e-06, No Iterations 3
GAMG:  Solving for p, Initial residual = 4.7585123e-05, Final residual = 3.4295989e-07, No Iterations 3
time step continuity errors : sum local = 1.2996548e-07, global = 3.3718604e-08, cumulative = -3.8756131e-08
smoothSolver:  Solving for omega, Initial residual = 0.0072175832, Final residual = 0.00046521293, No Iterations 2
smoothSolver:  Solving for k, Initial residual = 0.038111245, Final residual = 0.0024495172, No Iterations 2
ExecutionTime = 1.73 s  ClockTime = 2 s

forceCoeffs forceCoeffs_cl execute:
    Coefficients
        Cd       : -0.6134495	(pressure: -0.626303	viscous: 0.012853501)
        Cs       : -9.5221313e-05	(pressure: -9.4613884e-05	viscous: -6.0742862e-07)
        Cl       : 0.00021729522	(pressure: 0.00021482799	viscous: 2.4672372e-06)
        CmRoll       : -2.1278353e-08	(pressure: -1.6295832e-09	viscous: -1.964877e-08)
        CmPitch       : -4.6331534e-05	(pressure: -4.52301e-05	viscous: -1.1014343e-06)
        CmYaw       : -1.6528954e-05	(pressure: -1.6474542e-05	viscous: -5.4412793e-08)
        Cd(f)    : -0.30672477
        Cd(r)    : -0.30672473
        Cs(f)    : -6.4139611e-05
        Cs(r)    : -3.1081702e-05
        Cl(f)    : 6.2316078e-05
        Cl(r)    : 0.00015497915
forceCoeffs forceCoeffs_cd execute:
    Coefficients
        Cd       : -5.2478406	(pressure: -5.3577977	viscous: 0.10995709)
        Cs       : -0.00081458421	(pressure: -0.00080938787	viscous: -5.1963341e-06)
        Cl       : 0.0018588828	(pressure: 0.0018377764	viscous: 2.110633e-05)
        CmRoll       : -1.8202868e-07	(pressure: -1.39405e-08	viscous: -1.6808818e-07)
        CmPitch       : -0.00039634967	(pressure: -0.00038692729	viscous: -9.4223754e-06)
        CmYaw       : -0.00014139928	(pressure: -0.0001409338	viscous: -4.6548195e-07)
        Cd(f)    : -2.6239205
        Cd(r)    : -2.6239201
        Cs(f)    : -0.00054869138
        Cs(r)    : -0.00026589282
        Cl(f)    : 0.00053309171
        Cl(r)    : 0.0013257911
forces force_computation write:
    Sum of forces
        Total    : (-308.71449 0.10935241 0.047919509)
        Pressure : (-315.18293 0.10811079 0.047613824)
        Viscous  : (6.4684411 0.0012416211 0.00030568452)
    Sum of moments
        Total    : (-1.4241897e-05 -0.011063059 0.031010339)
        Pressure : (-1.0907027e-06 -0.011026639 0.030273134)
        Viscous  : (-1.3151194e-05 -3.6419238e-05 0.00073720524)


Time = 7

smoothSolver:  Solving for Ux, Initial residual = 0.018322322, Final residual = 0.00069071296, No Iterations 2
smoothSolver:  Solving for Uy, Initial residual = 0.15033812, Final residual = 0.0060412623, No Iterations 2
smoothSolver:  Solving for Uz, Initial residual = 0.15025767, Final residual = 0.0061571189, No Iterations 2
GAMG:  Solving for p, Initial residual = 0.054995911, Final residual = 0.00026134362, No Iterations 6
GAMG:  Solving for p, Initial residual = 0.0042634921, Final residual = 2.4851725e-05, No Iterations 3
GAMG:  Solving for p, Initial residual = 0.00062198468, Final residual = 4.8159062e-06, No Iterations 3
GAMG:  Solving for p, Initial residual = 0.00015342482, Final residual = 1.3819354e-06, No Iterations 3
GAMG:  Solving for p, Initial residual = 4.779177e-05, Final residual = 3.9398936e-07, No Iterations 3
GAMG:  Solving for p, Initial residual = 1.5643705e-05, Final residual = 1.2908235e-07, No Iterations 3
time step continuity errors : sum local = 2.967706e-07, global = 6.8310841e-08, cumulative = 2.955471e-08
smoothSolver:  Solving for omega, Initial residual = 0.0055772009, Final residual = 0.00037650745, No Iterations 2
smoothSolver:  Solving for k, Initial residual = 0.028967603, Final residual = 0.0019402757, No Iterations 2
ExecutionTime = 1.99 s  ClockTime = 2 s

forceCoeffs forceCoeffs_cl execute:
    Coefficients
        Cd       : 0.15414704	(pressure: 0.1404529	viscous: 0.013694139)
        Cs       : 4.9108823e-05	(pressure: 4.8801274e-05	viscous: 3.0754878e-07)
        Cl       : -0.00021911473	(pressure: -0.00021868126	viscous: -4.3346831e-07)
        CmRoll       : -7.9188894e-09	(pressure: 2.5022618e-09	viscous: -1.0421151e-08)
        CmPitch       : 5.6624751e-05	(pressure: 5.6623342e-05	viscous: 1.4096383e-09)
        CmYaw       : 2.2582779e-05	(pressure: 2.2270458e-05	viscous: 3.1232113e-07)
        Cd(f)    : 0.07707351
        Cd(r)    : 0.077073526
        Cs(f)    : 4.7137191e-05
        Cs(r)    : 1.971632e-06
        Cl(f)    : -5.2932615e-05
        Cl(r)    : -0.00016618212
forceCoeffs forceCoeffs_cd execute:
    Coefficients
        Cd       : 1.3186726	(pressure: 1.2015242	viscous: 0.11714845)
        Cs       : 0.00042010838	(pressure: 0.00041747741	viscous: 2.6309696e-06)
        Cl       : -0.001874448	(pressure: -0.0018707398	viscous: -3.708166e-06)
        CmRoll       : -6.7743261e-08	(pressure: 2.1405953e-08	viscous: -8.9149214e-08)
        CmPitch       : 0.00048440445	(pressure: 0.00048439239	viscous: 1.2058951e-08)
        CmYaw       : 0.00019318758	(pressure: 0.00019051579	viscous: 2.6717953e-06)
        Cd(f)    : 0.65933626
        Cd(r)    : 0.65933639
        Cs(f)    : 0.00040324177
        Cs(r)    : 1.6866605e-05
        Cl(f)    : -0.00045281955
        Cl(r)    : -0.0014216285
forces force_computation write:
    Sum of forces
        Total    : (77.573497 -0.11026807 -0.024713697)
        Pressure : (70.682011 -0.11004993 -0.024558925)
        Viscous  : (6.8914866 -0.00021814012 -0.00015477193)
    Sum of moments
        Total    : (-5.3002226e-06 0.015114968 -0.037899732)
        Pressure : (1.6747986e-06 0.014905927 -0.037898789)
        Viscous  : (-6.9750212e-06 0.00020904087 -9.4349051e-07)


Time = 8

smoothSolver:  Solving for Ux, Initial residual = 0.014837934, Final residual = 0.00048752649, No Iterations 2
smoothSolver:  Solving for Uy, Initial residual = 0.1287211, Final residual = 0.004927132, No Iterations 2
smoothSolver:  Solving for Uz, Initial residual = 0.12846378, Final residual = 0.0050648285, No Iterations 2
GAMG:  Solving for p, Initial residual = 0.097988893, Final residual = 0.00097064498, No Iterations 5
GAMG:  Solving for p, Initial residual = 0.0022505079, Final residual = 1.9687985e-05, No Iterations 3
GAMG:  Solving for p, Initial residual = 0.0003406965, Final residual = 1.9248286e-06, No Iterations 4
GAMG:  Solving for p, Initial residual = 7.754489e-05, Final residual = 5.6500022e-07, No Iterations 3
GAMG:  Solving for p, Initial residual = 2.0911556e-05, Final residual = 1.7944057e-07, No Iterations 3
GAMG:  Solving for p, Initial residual = 6.2073394e-06, Final residual = 5.0533594e-08, No Iterations 3
time step continuity errors : sum local = 1.2408068e-07, global = 3.6773746e-08, cumulative = 6.6328456e-08
smoothSolver:  Solving for omega, Initial residual = 0.0044544614, Final residual = 0.00031234769, No Iterations 2
smoothSolver:  Solving for k, Initial residual = 0.022548236, Final residual = 0.0015578698, No Iterations 2
ExecutionTime = 2.26 s  ClockTime = 3 s

forceCoeffs forceCoeffs_cl execute:
    Coefficients
        Cd       : 0.63854045	(pressure: 0.62452049	viscous: 0.014019961)
        Cs       : 0.00017653984	(pressure: 0.00017554996	viscous: 9.8988232e-07)
        Cl       : -0.00054962513	(pressure: -0.00054777495	viscous: -1.8501849e-06)
        CmRoll       : 1.488552e-08	(pressure: 1.2677923e-09	viscous: 1.3617728e-08)
        CmPitch       : 0.0001568315	(pressure: 0.00015626419	viscous: 5.6731586e-07)
        CmYaw       : 6.4147936e-05	(pressure: 6.3588377e-05	viscous: 5.5955949e-07)
        Cd(f)    : 0.31927024
        Cd(r)    : 0.31927021
        Cs(f)    : 0.00015241786
        Cs(r)    : 2.4121986e-05
        Cl(f)    : -0.00011798106
        Cl(r)    : -0.00043164407
forceCoeffs forceCoeffs_cd execute:
    Coefficients
        Cd       : 5.4624847	(pressure: 5.3425489	viscous: 0.11993574)
        Cs       : 0.0015102351	(pressure: 0.001501767	viscous: 8.4680885e-06)
        Cl       : -0.004701846	(pressure: -0.0046860184	viscous: -1.5827669e-05)
        CmRoll       : 1.2734029e-07	(pressure: 1.0845509e-08	viscous: 1.1649478e-07)
        CmPitch       : 0.0013416373	(pressure: 0.0013367841	viscous: 4.8531839e-06)
        CmYaw       : 0.0005487626	(pressure: 0.00054397577	viscous: 4.7868309e-06)
        Cd(f)    : 2.7312425
        Cd(r)    : 2.7312422
        Cs(f)    : 0.0013038802
        Cs(r)    : 0.00020635495
        Cl(f)    : -0.0010092857
        Cl(r)    : -0.0036925603
forces force_computation write:
    Sum of forces
        Total    : (321.34134 -0.27659529 -0.088842533)
        Pressure : (314.28589 -0.27566419 -0.088344381)
        Viscous  : (7.0554546 -0.00093109355 -0.00049815187)
    Sum of moments
        Total    : (9.9630855e-06 0.042935104 -0.1049695)
        Pressure : (8.4855101e-07 0.042560583 -0.10458979)
        Viscous  : (9.1145344e-06 0.00037452094 -0.00037971238)


Time = 9

smoothSolver:  Solving for Ux, Initial residual = 0.019562482, Final residual = 0.00077428074, No Iterations 2
smoothSolver:  Solving for Uy, Initial residual = 0.14880089, Final residual = 0.0059438328, No Iterations 2
smoothSolver:  Solving for Uz, Initial residual = 0.14878064, Final residual = 0.0061233061, No Iterations 2
GAMG:  Solving for p, Initial residual = 0.026036172, Final residual = 0.00019870615, No Iterations 4
GAMG:  Solving for p, Initial residual = 0.0029058174, Final residual = 2.7205874e-05, No Iterations 3
GAMG:  Solving for p, Initial residual = 0.00038727552, Final residual = 3.7439649e-06, No Iterations 3
GAMG:  Solving for p, Initial residual = 7.4541342e-05, Final residual = 7.2063737e-07, No Iterations 3
GAMG:  Solving for p, Initial residual = 1.8033982e-05, Final residual = 1.3901394e-07, No Iterations 3
GAMG:  Solving for p, Initial residual = 4.8004131e-06, Final residual = 9.1006576e-08, No Iterations 2
time step continuity errors : sum local = 1.1471897e-07, global = 2.3106411e-08, cumulative = 8.9434867e-08
smoothSolver:  Solving for omega, Initial residual = 0.003744425, Final residual = 0.00027014659, No Iterations 2
smoothSolver:  Solving for k, Initial residual = 0.018296913, Final residual = 0.0012993127, No Iterations 2
ExecutionTime = 2.5 s  ClockTime = 3 s

forceCoeffs forceCoeffs_cl execute:
    Coefficients
        Cd       : 0.59302368	(pressure: 0.57915667	viscous: 0.013867004)
        Cs       : 0.00035754863	(pressure: 0.00035722433	viscous: 3.2430346e-07)
        Cl       : -0.00028025162	(pressure: -0.00027825759	viscous: -1.994029e-06)
        CmRoll       : 9.73354e-09	(pressure: -5.7469521e-10	viscous: 1.0308235e-08)
        CmPitch       : 8.1298786e-05	(pressure: 8.0620221e-05	viscous: 6.7856494e-07)
        CmYaw       : 0.00010741049	(pressure: 0.00010723754	viscous: 1.7295774e-07)
        Cd(f)    : 0.29651185
        Cd(r)    : 0.29651183
        Cs(f)    : 0.00028618481
        Cs(r)    : 7.1363821e-05
        Cl(f)    : -5.8827024e-05
        Cl(r)    : -0.0002214246
forceCoeffs forceCoeffs_cd execute:
    Coefficients
        Cd       : 5.073105	(pressure: 4.9544778	viscous: 0.11862725)
        Cs       : 0.0030587004	(pressure: 0.0030559261	viscous: 2.7742999e-06)
        Cl       : -0.0023974522	(pressure: -0.002380394	viscous: -1.7058203e-05)
        CmRoll       : 8.3266946e-08	(pressure: -4.9163116e-09	viscous: 8.8183258e-08)
        CmPitch       : 0.00069548198	(pressure: 0.0006896771	viscous: 5.8048799e-06)
        CmYaw       : 0.00091885829	(pressure: 0.0009173787	viscous: 1.4795915e-06)
        Cd(f)    : 2.5365526
        Cd(r)    : 2.5365524
        Cs(f)    : 0.0024482085
        Cs(r)    : 0.00061049191
        Cl(f)    : -0.00050324411
        Cl(r)    : -0.0018942081
forces force_computation write:
    Sum of forces
        Total    : (298.43532 -0.14103481 -0.17993403)
        Pressure : (291.45684 -0.14003133 -0.17977083)
        Viscous  : (6.9784798 -0.0010034822 -0.00016320362)
    Sum of moments
        Total    : (6.5147934e-06 0.071891335 -0.054414406)
        Pressure : (-3.8465148e-07 0.071775572 -0.053960233)
        Viscous  : (6.8994449e-06 0.00011576302 -0.00045417294)


Time = 10

smoothSolver:  Solving for Ux, Initial residual = 0.011466349, Final residual = 0.00046389547, No Iterations 2
smoothSolver:  Solving for Uy, Initial residual = 0.085654936, Final residual = 0.0034036031, No Iterations 2
smoothSolver:  Solving for Uz, Initial residual = 0.08574578, Final residual = 0.0034760045, No Iterations 2
GAMG:  Solving for p, Initial residual = 0.026653384, Final residual = 0.00020302261, No Iterations 5
GAMG:  Solving for p, Initial residual = 0.020920397, Final residual = 0.00016102937, No Iterations 3
GAMG:  Solving for p, Initial residual = 0.0027423893, Final residual = 1.4241751e-05, No Iterations 4
GAMG:  Solving for p, Initial residual = 0.00061020021, Final residual = 4.8697374e-06, No Iterations 3
GAMG:  Solving for p, Initial residual = 0.00016831896, Final residual = 1.448297e-06, No Iterations 3
GAMG:  Solving for p, Initial residual = 4.9338349e-05, Final residual = 4.3296713e-07, No Iterations 3
time step continuity errors : sum local = 1.4613908e-07, global = -3.6231976e-08, cumulative = 5.3202892e-08
smoothSolver:  Solving for omega, Initial residual = 0.0032321498, Final residual = 0.00023808682, No Iterations 2
smoothSolver:  Solving for k, Initial residual = 0.015090589, Final residual = 0.0010909582, No Iterations 2
ExecutionTime = 2.77 s  ClockTime = 3 s

forceCoeffs forceCoeffs_cl execute:
    Coefficients
        Cd       : 0.20505977	(pressure: 0.19149789	viscous: 0.013561889)
        Cs       : 0.00024876615	(pressure: 0.00024962233	viscous: -8.5617923e-07)
        Cl       : 0.00014380217	(pressure: 0.00014444744	viscous: -6.452624e-07)
        CmRoll       : 1.2432693e-08	(pressure: -1.2124445e-10	viscous: 1.2553938e-08)
        CmPitch       : -3.8377805e-05	(pressure: -3.8642012e-05	viscous: 2.6420714e-07)
        CmYaw       : 7.0061121e-05	(pressure: 7.0337998e-05	viscous: -2.7687681e-07)
        Cd(f)    : 0.1025299
        Cd(r)    : 0.10252988
        Cs(f)    : 0.0001944442
        Cs(r)    : 5.4321954e-05
        Cl(f)    : 3.3523282e-05
        Cl(r)    : 0.00011027889
forceCoeffs forceCoeffs_cd execute:
    Coefficients
        Cd       : 1.7542129	(pressure: 1.6381958	viscous: 0.1160171)
        Cs       : 0.0021281052	(pressure: 0.0021354296	viscous: -7.3243065e-06)
        Cl       : 0.0012301761	(pressure: 0.0012356961	viscous: -5.5199886e-06)
        CmRoll       : 1.0635724e-07	(pressure: -1.0372028e-09	viscous: 1.0739444e-07)
        CmPitch       : -0.00032830837	(pressure: -0.00033056857	viscous: 2.2601974e-06)
        CmYaw       : 0.00059934778	(pressure: 0.00060171636	viscous: -2.3685819e-06)
        Cd(f)    : 0.87710655
        Cd(r)    : 0.87710634
        Cs(f)    : 0.0016634004
        Cs(r)    : 0.00046470485
        Cl(f)    : 0.00028677966
        Cl(r)    : 0.0009433964
forces force_computation write:
    Sum of forces
        Total    : (103.195 0.072367512 -0.12518995)
        Pressure : (96.37007 0.072692237 -0.12562082)
        Viscous  : (6.8249328 -0.00032472412 0.00043086665)
    Sum of moments
        Total    : (8.3213742e-06 0.046892881 0.025686798)
        Pressure : (-8.1150592e-08 0.047078198 0.025863635)
        Viscous  : (8.4025248e-06 -0.00018531749 -0.00017683751)


Time = 11

smoothSolver:  Solving for Ux, Initial residual = 0.0050061033, Final residual = 0.0001834647, No Iterations 2
smoothSolver:  Solving for Uy, Initial residual = 0.048470887, Final residual = 0.0016537006, No Iterations 2
smoothSolver:  Solving for Uz, Initial residual = 0.048342136, Final residual = 0.0017156274, No Iterations 2
GAMG:  Solving for p, Initial residual = 0.033583804, Final residual = 0.00030324547, No Iterations 5
GAMG:  Solving for p, Initial residual = 0.0054242877, Final residual = 4.1739229e-05, No Iterations 3
GAMG:  Solving for p, Initial residual = 0.00086457165, Final residual = 4.7611795e-06, No Iterations 4
GAMG:  Solving for p, Initial residual = 0.00019942063, Final residual = 1.5306455e-06, No Iterations 3
GAMG:  Solving for p, Initial residual = 5.7863555e-05, Final residual = 4.9987091e-07, No Iterations 3
GAMG:  Solving for p, Initial residual = 1.7521739e-05, Final residual = 1.5024183e-07, No Iterations 3
time step continuity errors : sum local = 1.3920418e-07, global = -3.460995e-08, cumulative = 1.8592942e-08
smoothSolver:  Solving for omega, Initial residual = 0.0027825282, Final residual = 0.00020886702, No Iterations 2
smoothSolver:  Solving for k, Initial residual = 0.012373624, Final residual = 0.00091057411, No Iterations 2
ExecutionTime = 3.03 s  ClockTime = 3 s

forceCoeffs forceCoeffs_cl execute:
    Coefficients
        Cd       : -0.14844483	(pressure: -0.16191122	viscous: 0.013466389)
        Cs       : 1.1834989e-06	(pressure: 3.406427e-06	viscous: -2.2229282e-06)
        Cl       : 0.00045725914	(pressure: 0.00045662327	viscous: 6.3586543e-07)
        CmRoll       : 1.0760246e-08	(pressure: 9.6942189e-10	viscous: 9.7908239e-09)
        CmPitch       : -0.00012635946	(pressure: -0.00012617645	viscous: -1.830092e-07)
        CmYaw       : -3.7723767e-06	(pressure: -2.9485197e-06	viscous: -8.2385699e-07)
        Cd(f)    : -0.074222404
        Cd(r)    : -0.074222426
        Cs(f)    : -3.1806272e-06
        Cs(r)    : 4.3641261e-06
        Cl(f)    : 0.00010227011
        Cl(r)    : 0.00035498903
forceCoeffs forceCoeffs_cd execute:
    Coefficients
        Cd       : -1.2698923	(pressure: -1.3850924	viscous: 0.11520013)
        Cs       : 1.0124409e-05	(pressure: 2.9140762e-05	viscous: -1.9016354e-05)
        Cl       : 0.0039116881	(pressure: 0.0039062485	viscous: 5.4396008e-06)
        CmRoll       : 9.2050046e-08	(pressure: 8.2930569e-09	viscous: 8.375699e-08)
        CmPitch       : -0.0010809599	(pressure: -0.0010793943	viscous: -1.5655781e-06)
        CmYaw       : -3.227133e-05	(pressure: -2.5223529e-05	viscous: -7.0478013e-06)
        Cd(f)    : -0.63494607
        Cd(r)    : -0.63494625
        Cs(f)    : -2.7209126e-05
        Cs(r)    : 3.7333535e-05
        Cl(f)    : 0.00087488412
        Cl(r)    : 0.0030368039
forces force_computation write:
    Sum of forces
        Total    : (-74.703899 0.2301127 -0.00059558814)
        Pressure : (-81.480772 0.2297927 -0.0017142623)
        Viscous  : (6.7768728 0.00031999516 0.0011186742)
    Sum of moments
        Total    : (7.2019819e-06 -0.0025249041 0.084574142)
        Pressure : (6.4884753e-07 -0.0019734851 0.084451652)
        Viscous  : (6.5531344e-06 -0.00055141892 0.0001224906)


Time = 12

smoothSolver:  Solving for Ux, Initial residual = 0.0048361594, Final residual = 0.00017661846, No Iterations 2
smoothSolver:  Solving for Uy, Initial residual = 0.083334725, Final residual = 0.0032019977, No Iterations 2
smoothSolver:  Solving for Uz, Initial residual = 0.083355128, Final residual = 0.0033150674, No Iterations 2
GAMG:  Solving for p, Initial residual = 0.092153894, Final residual = 0.00084795204, No Iterations 4
GAMG:  Solving for p, Initial residual = 0.0052402417, Final residual = 2.3031662e-05, No Iterations 4
GAMG:  Solving for p, Initial residual = 0.000767747, Final residual = 5.5903458e-06, No Iterations 3
GAMG:  Solving for p, Initial residual = 0.00014122433, Final residual = 1.3586253e-06, No Iterations 3
GAMG:  Solving for p, Initial residual = 3.8454145e-05, Final residual = 3.5419288e-07, No Iterations 3
GAMG:  Solving for p, Initial residual = 1.0245073e-05, Final residual = 4.451899e-08, No Iterations 4
time step continuity errors : sum local = 2.4005989e-08, global = -5.8045464e-09, cumulative = 1.2788396e-08
smoothSolver:  Solving for omega, Initial residual = 0.00242773, Final residual = 0.00018460131, No Iterations 2
smoothSolver:  Solving for k, Initial residual = 0.010319358, Final residual = 0.00077228966, No Iterations 2
ExecutionTime = 3.29 s  ClockTime = 4 s

forceCoeffs forceCoeffs_cl execute:
    Coefficients
        Cd       : -0.24372459	(pressure: -0.25739012	viscous: 0.013665527)
        Cs       : -0.00016521968	(pressure: -0.00016225718	viscous: -2.962503e-06)
        Cl       : 0.00018583988	(pressure: 0.00018326429	viscous: 2.5755872e-06)
        CmRoll       : 7.0297032e-09	(pressure: 2.2701452e-09	viscous: 4.759558e-09)
        CmPitch       : -4.3187614e-05	(pressure: -4.2218332e-05	viscous: -9.6928154e-07)
        CmYaw       : -3.5160736e-05	(pressure: -3.4027764e-05	viscous: -1.1329722e-06)
        Cd(f)    : -0.12186229
        Cd(r)    : -0.1218623
        Cs(f)    : -0.00011777058
        Cs(r)    : -4.7449104e-05
        Cl(f)    : 4.9732327e-05
        Cl(r)    : 0.00013610755
forceCoeffs forceCoeffs_cd execute:
    Coefficients
        Cd       : -2.0849766	(pressure: -2.2018802	viscous: 0.11690369)
        Cs       : -0.0014133952	(pressure: -0.001388052	viscous: -2.5343151e-05)
        Cl       : 0.0015897936	(pressure: 0.0015677604	viscous: 2.2033226e-05)
        CmRoll       : 6.0136592e-08	(pressure: 1.9420279e-08	viscous: 4.0716313e-08)
        CmPitch       : -0.00036945456	(pressure: -0.0003611627	viscous: -8.2918562e-06)
        CmYaw       : -0.0003007875	(pressure: -0.00029109533	viscous: -9.6921707e-06)
        Cd(f)    : -1.0424882
        Cd(r)    : -1.0424883
        Cs(f)    : -0.0010074851
        Cs(r)    : -0.00040591008
        Cl(f)    : 0.00042544224
        Cl(r)    : 0.0011643514
forces force_computation write:
    Sum of forces
        Total    : (-122.65282 0.093522717 0.083145734)
        Pressure : (-129.52991 0.092226569 0.081654874)
        Viscous  : (6.877088 0.0012961476 0.0014908604)
    Sum of moments
        Total    : (4.705078e-06 -0.023533569 0.02890607)
        Pressure : (1.5194397e-06 -0.022775255 0.028257316)
        Viscous  : (3.1856382e-06 -0.00075831399 0.00064875359)


Time = 13

smoothSolver:  Solving for Ux, Initial residual = 0.0052227241, Final residual = 0.00019345205, No Iterations 2
smoothSolver:  Solving for Uy, Initial residual = 0.080373908, Final residual = 0.0031923025, No Iterations 2
smoothSolver:  Solving for Uz, Initial residual = 0.080687325, Final residual = 0.003292977, No Iterations 2
GAMG:  Solving for p, Initial residual = 0.25983518, Final residual = 0.0012134513, No Iterations 5
GAMG:  Solving for p, Initial residual = 0.0094435044, Final residual = 6.0978815e-05, No Iterations 3
GAMG:  Solving for p, Initial residual = 0.0012772017, Final residual = 1.1101037e-05, No Iterations 3
GAMG:  Solving for p, Initial residual = 0.00027106116, Final residual = 2.1675784e-06, No Iterations 3
GAMG:  Solving for p, Initial residual = 7.0066156e-05, Final residual = 5.4700535e-07, No Iterations 3
GAMG:  Solving for p, Initial residual = 1.9298846e-05, Final residual = 1.3096516e-07, No Iterations 3
time step continuity errors : sum local = 4.1547025e-08, global = 8.8828912e-09, cumulative = 2.1671287e-08
smoothSolver:  Solving for omega, Initial residual = 0.0021448965, Final residual = 0.00016490866, No Iterations 2
smoothSolver:  Solving for k, Initial residual = 0.0088028506, Final residual = 0.00066678014, No Iterations 2
ExecutionTime = 3.55 s  ClockTime = 4 s

forceCoeffs forceCoeffs_cl execute:
    Coefficients
        Cd       : -0.10790982	(pressure: -0.12192793	viscous: 0.014018107)
        Cs       : -0.00010444627	(pressure: -0.00010088902	viscous: -3.5572591e-06)
        Cl       : -0.00015977024	(pressure: -0.00016315015	viscous: 3.3799078e-06)
        CmRoll       : 4.4669986e-09	(pressure: -1.3082437e-09	viscous: 5.7752423e-09)
        CmPitch       : 5.4618955e-05	(pressure: 5.5984257e-05	viscous: -1.3653018e-06)
        CmYaw       : -7.7031434e-06	(pressure: -6.2160334e-06	viscous: -1.48711e-06)
        Cd(f)    : -0.053954906
        Cd(r)    : -0.053954915
        Cs(f)    : -5.9926281e-05
        Cs(r)    : -4.4519994e-05
        Cl(f)    : -2.5266163e-05
        Cl(r)    : -0.00013450407
forceCoeffs forceCoeffs_cd execute:
    Coefficients
        Cd       : -0.92312984	(pressure: -1.0430497	viscous: 0.11991988)
        Cs       : -0.00089350045	(pressure: -0.00086306937	viscous: -3.0431077e-05)
        Cl       : -0.0013667771	(pressure: -0.001395691	viscous: 2.89139e-05)
        CmRoll       : 3.8213572e-08	(pressure: -1.1191556e-08	viscous: 4.9405128e-08)
        CmPitch       : 0.00046724559	(pressure: 0.00047892526	viscous: -1.1679667e-05)
        CmYaw       : -6.5897631e-05	(pressure: -5.3175938e-05	viscous: -1.2721693e-05)
        Cd(f)    : -0.46156488
        Cd(r)    : -0.46156496
        Cs(f)    : -0.00051264786
        Cs(r)    : -0.00038085259
        Cl(f)    : -0.00021614297
        Cl(r)    : -0.0011506342
forces force_computation write:
    Sum of forces
        Total    : (-54.304918 -0.080403337 0.052561911)
        Pressure : (-61.35944 -0.082104254 0.050771744)
        Viscous  : (7.0545216 0.0017009167 0.0017901676)
    Sum of moments
        Total    : (2.9898242e-06 -0.0051558208 -0.036557225)
        Pressure : (-8.7562568e-07 -0.0041604775 -0.037471041)
        Viscous  : (3.8654499e-06 -0.00099534334 0.00091381543)


Time = 14

smoothSolver:  Solving for Ux, Initial residual = 0.0040134794, Final residual = 0.00013644602, No Iterations 2
smoothSolver:  Solving for Uy, Initial residual = 0.051401503, Final residual = 0.002117694, No Iterations 2
smoothSolver:  Solving for Uz, Initial residual = 0.051534869, Final residual = 0.0021483249, No Iterations 2
GAMG:  Solving for p, Initial residual = 0.19389436, Final residual = 0.0012958865, No Iterations 5
GAMG:  Solving for p, Initial residual = 0.0034912832, Final residual = 2.1570903e-05, No Iterations 3
GAMG:  Solving for p, Initial residual = 0.00054569789, Final residual = 2.5797438e-06, No Iterations 4
GAMG:  Solving for p, Initial residual = 0.00012723204, Final residual = 8.7357124e-07, No Iterations 3
GAMG:  Solving for p, Initial residual = 3.6075765e-05, Final residual = 2.8383204e-07, No Iterations 3
GAMG:  Solving for p, Initial residual = 1.0739211e-05, Final residual = 8.6180561e-08, No Iterations 3
time step continuity errors : sum local = 7.6895497e-08, global = 2.5774501e-08, cumulative = 4.7445788e-08
smoothSolver:  Solving for omega, Initial residual = 0.0019077453, Final residual = 0.0001483113, No Iterations 2
smoothSolver:  Solving for k, Initial residual = 0.0076285556, Final residual = 0.00058415518, No Iterations 2
ExecutionTime = 3.81 s  ClockTime = 4 s

forceCoeffs forceCoeffs_cl execute:
    Coefficients
        Cd       : 0.093696794	(pressure: 0.079375487	viscous: 0.014321306)
        Cs       : 5.6320582e-05	(pressure: 5.9528456e-05	viscous: -3.2078738e-06)
        Cl       : -0.00039789525	(pressure: -0.00040023497	viscous: 2.3397158e-06)
        CmRoll       : 3.580221e-09	(pressure: -2.8069856e-09	viscous: 6.3872066e-09)
        CmPitch       : 0.0001157985	(pressure: 0.00011675448	viscous: -9.5597565e-07)
        CmYaw       : 3.2619144e-05	(pressure: 3.4036822e-05	viscous: -1.4176781e-06)
        Cd(f)    : 0.0468484
        Cd(r)    : 0.046848393
        Cs(f)    : 6.0779435e-05
        Cs(r)    : -4.4588528e-06
        Cl(f)    : -8.3149123e-05
        Cl(r)    : -0.00031474613
forceCoeffs forceCoeffs_cd execute:
    Coefficients
        Cd       : 0.80154249	(pressure: 0.67902885	viscous: 0.12251364)
        Cs       : 0.00048180239	(pressure: 0.0005092446	viscous: -2.7442211e-05)
        Cl       : -0.0034038513	(pressure: -0.0034238667	viscous: 2.001543e-05)
        CmRoll       : 3.0627508e-08	(pressure: -2.4012756e-08	viscous: 5.4640264e-08)
        CmPitch       : 0.00099061468	(pressure: 0.00099879271	viscous: -8.1780291e-06)
        CmYaw       : 0.00027904508	(pressure: 0.00029117281	viscous: -1.2127728e-05)
        Cd(f)    : 0.40077128
        Cd(r)    : 0.40077121
        Cs(f)    : 0.00051994628
        Cs(r)    : -3.8143888e-05
        Cl(f)    : -0.00071131095
        Cl(r)    : -0.0026925403
forces force_computation write:
    Sum of forces
        Total    : (47.152304 -0.20023821 -0.028342968)
        Pressure : (39.9452 -0.20141565 -0.02995731)
        Viscous  : (7.2071045 0.0011774468 0.0016143417)
    Sum of moments
        Total    : (2.3962916e-06 0.021832446 -0.077505545)
        Pressure : (-1.8787545e-06 0.022781317 -0.078145393)
        Viscous  : (4.2750461e-06 -0.00094887162 0.00063984778)


Time = 15

smoothSolver:  Solving for Ux, Initial residual = 0.0038176221, Final residual = 0.00012995044, No Iterations 2
smoothSolver:  Solving for Uy, Initial residual = 0.056050587, Final residual = 0.0021528166, No Iterations 2
smoothSolver:  Solving for Uz, Initial residual = 0.056006059, Final residual = 0.0022104224, No Iterations 2
GAMG:  Solving for p, Initial residual = 0.037385282, Final residual = 0.00019441168, No Iterations 5
GAMG:  Solving for p, Initial residual = 0.0022327541, Final residual = 1.4417461e-05, No Iterations 3
GAMG:  Solving for p, Initial residual = 0.00033214205, Final residual = 1.7226613e-06, No Iterations 4
GAMG:  Solving for p, Initial residual = 7.2793696e-05, Final residual = 5.0391015e-07, No Iterations 3
GAMG:  Solving for p, Initial residual = 1.9848266e-05, Final residual = 1.7620767e-07, No Iterations 3
GAMG:  Solving for p, Initial residual = 5.6792194e-06, Final residual = 4.9535527e-08, No Iterations 3
time step continuity errors : sum local = 4.3657396e-08, global = 1.1102186e-08, cumulative = 5.8547973e-08
smoothSolver:  Solving for omega, Initial residual = 0.0017128817, Final residual = 0.00013379119, No Iterations 2
smoothSolver:  Solving for k, Initial residual = 0.0067371819, Final residual = 0.0005202012, No Iterations 2
ExecutionTime = 4.08 s  ClockTime = 4 s

forceCoeffs forceCoeffs_cl execute:
    Coefficients
        Cd       : 0.20483168	(pressure: 0.19035355	viscous: 0.014478129)
        Cs       : 0.00016244807	(pressure: 0.00016486288	viscous: -2.4148139e-06)
        Cl       : -0.00036065508	(pressure: -0.00036166174	viscous: 1.006663e-06)
        CmRoll       : 4.9686051e-09	(pressure: -1.9802631e-09	viscous: 6.9488682e-09)
        CmPitch       : 9.8434832e-05	(pressure: 9.8843226e-05	viscous: -4.0839394e-07)
        CmYaw       : 4.6881293e-05	(pressure: 4.7966025e-05	viscous: -1.0847322e-06)
        Cd(f)    : 0.10241585
        Cd(r)    : 0.10241584
        Cs(f)    : 0.00012810533
        Cs(r)    : 3.434274e-05
        Cl(f)    : -8.1892708e-05
        Cl(r)    : -0.00027876237
forceCoeffs forceCoeffs_cd execute:
    Coefficients
        Cd       : 1.7522616	(pressure: 1.6284064	viscous: 0.1238552)
        Cs       : 0.001389685	(pressure: 0.0014103429	viscous: -2.0657868e-05)
        Cl       : -0.003085275	(pressure: -0.0030938866	viscous: 8.6116411e-06)
        CmRoll       : 4.2504636e-08	(pressure: -1.6940441e-08	viscous: 5.9445078e-08)
        CmPitch       : 0.00084207471	(pressure: 0.00084556837	viscous: -3.4936638e-06)
        CmYaw       : 0.00040105266	(pressure: 0.00041033216	viscous: -9.2794949e-06)
        Cd(f)    : 0.87613086
        Cd(r)    : 0.87613077
        Cs(f)    : 0.0010958952
        Cs(r)    : 0.00029378983
        Cl(f)    : -0.00070056277
        Cl(r)    : -0.0023847122
forces force_computation write:
    Sum of forces
        Total    : (103.08022 -0.18149733 -0.081750937)
        Pressure : (95.794192 -0.18200393 -0.082966176)
        Viscous  : (7.2860246 0.00050659663 0.0012152395)
    Sum of moments
        Total    : (3.3255564e-06 0.0313783 -0.0658838)
        Pressure : (-1.3254176e-06 0.032104327 -0.066157143)
        Viscous  : (4.650974e-06 -0.0007260263 0.00027334374)


Time = 16

smoothSolver:  Solving for Ux, Initial residual = 0.0043399113, Final residual = 0.00016723022, No Iterations 2
smoothSolver:  Solving for Uy, Initial residual = 0.053225122, Final residual = 0.0019871803, No Iterations 2
smoothSolver:  Solving for Uz, Initial residual = 0.053231328, Final residual = 0.0020364098, No Iterations 2
GAMG:  Solving for p, Initial residual = 0.026150248, Final residual = 0.00016225112, No Iterations 4
GAMG:  Solving for p, Initial residual = 0.0044478344, Final residual = 3.0396746e-05, No Iterations 3
GAMG:  Solving for p, Initial residual = 0.00055986733, Final residual = 5.5046242e-06, No Iterations 3
GAMG:  Solving for p, Initial residual = 0.00010569221, Final residual = 4.2565955e-07, No Iterations 4
GAMG:  Solving for p, Initial residual = 2.4965485e-05, Final residual = 1.627253e-07, No Iterations 3
GAMG:  Solving for p, Initial residual = 6.198865e-06, Final residual = 5.4470815e-08, No Iterations 3
time step continuity errors : sum local = 2.241252e-08, global = -3.7660296e-09, cumulative = 5.4781944e-08
smoothSolver:  Solving for omega, Initial residual = 0.0015536493, Final residual = 0.00012098052, No Iterations 2
smoothSolver:  Solving for k, Initial residual = 0.0060423932, Final residual = 0.00046878122, No Iterations 2
ExecutionTime = 4.33 s  ClockTime = 5 s

forceCoeffs forceCoeffs_cl execute:
    Coefficients
        Cd       : 0.18065782	(pressure: 0.1661438	viscous: 0.014514022)
        Cs       : 0.00016557156	(pressure: 0.00016691975	viscous: -1.3481862e-06)
        Cl       : -0.00020218693	(pressure: -0.00020286015	viscous: 6.7322656e-07)
        CmRoll       : 7.1116439e-09	(pressure: 3.0440894e-10	viscous: 6.8072349e-09)
        CmPitch       : 4.99757e-05	(pressure: 5.0275029e-05	viscous: -2.9932891e-07)
        CmYaw       : 3.4687448e-05	(pressure: 3.5264625e-05	viscous: -5.7717751e-07)
        Cd(f)    : 0.090328916
        Cd(r)    : 0.090328902
        Cs(f)    : 0.00011747323
        Cs(r)    : 4.8098333e-05
        Cl(f)    : -5.1117764e-05
        Cl(r)    : -0.00015106916
forceCoeffs forceCoeffs_cd execute:
    Coefficients
        Cd       : 1.5454629	(pressure: 1.4213006	viscous: 0.12416226)
        Cs       : 0.0014164054	(pressure: 0.0014279386	viscous: -1.153325e-05)
        Cl       : -0.0017296367	(pressure: -0.0017353959	viscous: 5.7592119e-06)
        CmRoll       : 6.0837565e-08	(pressure: 2.6041093e-09	viscous: 5.8233455e-08)
        CmPitch       : 0.00042752421	(pressure: 0.00043008486	viscous: -2.5606515e-06)
        CmYaw       : 0.00029673868	(pressure: 0.00030167623	viscous: -4.9375468e-06)
        Cd(f)    : 0.77273151
        Cd(r)    : 0.77273138
        Cs(f)    : 0.0010049414
        Cs(r)    : 0.000411464
        Cl(f)    : -0.00043729415
        Cl(r)    : -0.0012923426
forces force_computation write:
    Sum of forces
        Total    : (90.914877 -0.10174926 -0.083322815)
        Pressure : (83.610789 -0.10208806 -0.084001281)
        Viscous  : (7.3040877 0.0003387969 0.00067846598)
    Sum of moments
        Total    : (4.759922e-06 0.02321679 -0.03344943)
        Pressure : (2.0374513e-07 0.023603103 -0.033649775)
        Viscous  : (4.5561769e-06 -0.00038631292 0.00020034499)


Time = 17

smoothSolver:  Solving for Ux, Initial residual = 0.0036095285, Final residual = 0.0001378056, No Iterations 2
smoothSolver:  Solving for Uy, Initial residual = 0.034308668, Final residual = 0.0012118209, No Iterations 2
smoothSolver:  Solving for Uz, Initial residual = 0.034344892, Final residual = 0.0012248752, No Iterations 2
GAMG:  Solving for p, Initial residual = 0.027429752, Final residual = 0.0001238799, No Iterations 5
GAMG:  Solving for p, Initial residual = 0.018602391, Final residual = 0.00011132536, No Iterations 3
GAMG:  Solving for p, Initial residual = 0.0024573024, Final residual = 2.3141912e-05, No Iterations 3
GAMG:  Solving for p, Initial residual = 0.000549346, Final residual = 5.3702297e-06, No Iterations 3
GAMG:  Solving for p, Initial residual = 0.00015207268, Final residual = 1.4772587e-06, No Iterations 3
GAMG:  Solving for p, Initial residual = 4.4964162e-05, Final residual = 4.3323845e-07, No Iterations 3
time step continuity errors : sum local = 5.7307964e-08, global = -1.4014571e-08, cumulative = 4.0767373e-08
smoothSolver:  Solving for omega, Initial residual = 0.0014044986, Final residual = 0.00010862597, No Iterations 2
smoothSolver:  Solving for k, Initial residual = 0.0053979534, Final residual = 0.00042007643, No Iterations 2
ExecutionTime = 4.59 s  ClockTime = 5 s

forceCoeffs forceCoeffs_cl execute:
    Coefficients
        Cd       : 0.084740252	(pressure: 0.070232397	viscous: 0.014507855)
        Cs       : 7.3544537e-05	(pressure: 7.42436e-05	viscous: -6.9906264e-07)
        Cl       : -0.00011065986	(pressure: -0.00011116509	viscous: 5.0522729e-07)
        CmRoll       : 8.746403e-09	(pressure: 1.7750066e-09	viscous: 6.9713964e-09)
        CmPitch       : 3.4482495e-05	(pressure: 3.4697713e-05	viscous: -2.1521834e-07)
        CmYaw       : 7.556182e-06	(pressure: 7.7995825e-06	viscous: -2.4340051e-07)
        Cd(f)    : 0.042370135
        Cd(r)    : 0.042370117
        Cs(f)    : 4.4328451e-05
        Cs(r)    : 2.9216087e-05
        Cl(f)    : -2.0847436e-05
        Cl(r)    : -8.9812426e-05
forceCoeffs forceCoeffs_cd execute:
    Coefficients
        Cd       : 0.72492249	(pressure: 0.60081298	viscous: 0.1241095)
        Cs       : 0.00062914716	(pressure: 0.00063512739	viscous: -5.9802303e-06)
        Cl       : -0.00094665546	(pressure: -0.0009509775	viscous: 4.3220384e-06)
        CmRoll       : 7.4822343e-08	(pressure: 1.5184545e-08	viscous: 5.9637798e-08)
        CmPitch       : 0.00029498539	(pressure: 0.0002968265	viscous: -1.8411158e-06)
        CmYaw       : 6.4640429e-05	(pressure: 6.6722633e-05	viscous: -2.0822041e-06)
        Cd(f)    : 0.36246132
        Cd(r)    : 0.36246117
        Cs(f)    : 0.00037921401
        Cs(r)    : 0.00024993315
        Cl(f)    : -0.00017834234
        Cl(r)    : -0.00076831312
forces force_computation write:
    Sum of forces
        Total    : (42.644983 -0.055688859 -0.037010812)
        Pressure : (35.343999 -0.055943111 -0.037362611)
        Viscous  : (7.300984 0.00025425236 0.00035179874)
    Sum of moments
        Total    : (5.8540889e-06 0.0050574575 -0.023079613)
        Pressure : (1.1880366e-06 0.0052203689 -0.023223661)
        Viscous  : (4.6660524e-06 -0.00016291134 0.00014404863)


Time = 18

smoothSolver:  Solving for Ux, Initial residual = 0.0026871627, Final residual = 9.3672033e-05, No Iterations 2
smoothSolver:  Solving for Uy, Initial residual = 0.029350605, Final residual = 0.0010395107, No Iterations 2
smoothSolver:  Solving for Uz, Initial residual = 0.029308325, Final residual = 0.0010580414, No Iterations 2
GAMG:  Solving for p, Initial residual = 0.031852345, Final residual = 0.00014811736, No Iterations 5
GAMG:  Solving for p, Initial residual = 0.0069359752, Final residual = 3.645723e-05, No Iterations 3
GAMG:  Solving for p, Initial residual = 0.00099247994, Final residual = 9.098991e-06, No Iterations 3
GAMG:  Solving for p, Initial residual = 0.00022662831, Final residual = 8.8574266e-07, No Iterations 4
GAMG:  Solving for p, Initial residual = 6.5761283e-05, Final residual = 4.1257461e-07, No Iterations 3
GAMG:  Solving for p, Initial residual = 1.9049453e-05, Final residual = 1.6310158e-07, No Iterations 3
time step continuity errors : sum local = 4.1918365e-08, global = -1.5202402e-08, cumulative = 2.5564971e-08
smoothSolver:  Solving for omega, Initial residual = 0.0012440606, Final residual = 9.5509141e-05, No Iterations 2
smoothSolver:  Solving for k, Initial residual = 0.0047718264, Final residual = 0.00037203971, No Iterations 2
ExecutionTime = 4.85 s  ClockTime = 5 s

forceCoeffs forceCoeffs_cl execute:
    Coefficients
        Cd       : 0.0047110135	(pressure: -0.0098097837	viscous: 0.014520797)
        Cs       : -2.8934757e-05	(pressure: -2.8298365e-05	viscous: -6.3639257e-07)
        Cl       : -0.00018767631	(pressure: -0.00018763917	viscous: -3.7143325e-08)
        CmRoll       : 5.1380539e-09	(pressure: 1.2062067e-09	viscous: 3.9318472e-09)
        CmPitch       : 8.3106287e-05	(pressure: 8.3057727e-05	viscous: 4.8560064e-08)
        CmYaw       : -1.2357904e-05	(pressure: -1.2167259e-05	viscous: -1.9064465e-07)
        Cd(f)    : 0.0023555119
        Cd(r)    : 0.0023555016
        Cs(f)    : -2.6825283e-05
        Cs(r)    : -2.109475e-06
        Cl(f)    : -1.0731867e-05
        Cl(r)    : -0.00017694444
forceCoeffs forceCoeffs_cd execute:
    Coefficients
        Cd       : 0.040301032	(pressure: -0.083919184	viscous: 0.12422022)
        Cs       : -0.00024752648	(pressure: -0.00024208237	viscous: -5.4441104e-06)
        Cl       : -0.0016055036	(pressure: -0.0016051858	viscous: -3.1774783e-07)
        CmRoll       : 4.395421e-08	(pressure: 1.0318666e-08	viscous: 3.3635544e-08)
        CmPitch       : 0.0007109445	(pressure: 0.00071052909	viscous: 4.1541394e-07)
        CmYaw       : -0.00010571744	(pressure: -0.00010408654	viscous: -1.6308967e-06)
        Cd(f)    : 0.02015056
        Cd(r)    : 0.020150472
        Cs(f)    : -0.00022948068
        Cs(r)    : -1.8045802e-05
        Cl(f)    : -9.1807277e-05
        Cl(r)    : -0.0015136963
forces force_computation write:
    Sum of forces
        Total    : (2.370787 -0.094446887 0.014561229)
        Pressure : (-4.9367101 -0.094428194 0.014240969)
        Viscous  : (7.3074971 -1.8692138e-05 0.00032026044)
    Sum of moments
        Total    : (3.4389708e-06 -0.0082713166 -0.055624192)
        Pressure : (8.0733089e-07 -0.0081437155 -0.05559169)
        Viscous  : (2.6316399e-06 -0.00012760111 -3.2501925e-05)


Time = 19

smoothSolver:  Solving for Ux, Initial residual = 0.0024933303, Final residual = 8.127361e-05, No Iterations 2
smoothSolver:  Solving for Uy, Initial residual = 0.035592437, Final residual = 0.0013043939, No Iterations 2
smoothSolver:  Solving for Uz, Initial residual = 0.035526174, Final residual = 0.0013262536, No Iterations 2
GAMG:  Solving for p, Initial residual = 0.05202887, Final residual = 0.00035375187, No Iterations 4
GAMG:  Solving for p, Initial residual = 0.025512334, Final residual = 0.00018513592, No Iterations 3
GAMG:  Solving for p, Initial residual = 0.0045507173, Final residual = 4.5094907e-05, No Iterations 3
GAMG:  Solving for p, Initial residual = 0.00098780211, Final residual = 8.8912077e-06, No Iterations 3
GAMG:  Solving for p, Initial residual = 0.00024741446, Final residual = 2.1764741e-06, No Iterations 3
GAMG:  Solving for p, Initial residual = 6.6996962e-05, Final residual = 5.4874671e-07, No Iterations 3
time step continuity errors : sum local = 1.6813075e-08, global = -3.8806478e-09, cumulative = 2.1684323e-08
smoothSolver:  Solving for omega, Initial residual = 0.0011318018, Final residual = 8.6787433e-05, No Iterations 2
smoothSolver:  Solving for k, Initial residual = 0.0043220999, Final residual = 0.00033726477, No Iterations 2
ExecutionTime = 5.1 s  ClockTime = 6 s

forceCoeffs forceCoeffs_cl execute:
    Coefficients
        Cd       : -0.012478452	(pressure: -0.027050114	viscous: 0.014571662)
        Cs       : -5.7369958e-05	(pressure: -5.662972e-05	viscous: -7.4023825e-07)
        Cl       : -0.0003116151	(pressure: -0.00031176734	viscous: 1.5223862e-07)
        CmRoll       : 9.9494088e-10	(pressure: -1.8071263e-10	viscous: 1.1756535e-09)
        CmPitch       : 0.00013781281	(pressure: 0.00013784323	viscous: -3.0417792e-08)
        CmYaw       : -7.8665254e-06	(pressure: -7.6404421e-06	viscous: -2.2608331e-07)
        Cd(f)    : -0.0062392249
        Cd(r)    : -0.0062392269
        Cs(f)    : -3.6551505e-05
        Cs(r)    : -2.0818454e-05
        Cl(f)    : -1.7994739e-05
        Cl(r)    : -0.00029362037
forceCoeffs forceCoeffs_cd execute:
    Coefficients
        Cd       : -0.10674868	(pressure: -0.23140403	viscous: 0.12465534)
        Cs       : -0.00049077943	(pressure: -0.00048444696	viscous: -6.3324729e-06)
        Cl       : -0.0026657555	(pressure: -0.0026670579	viscous: 1.3023468e-06)
        CmRoll       : 8.5113627e-09	(pressure: -1.5459318e-09	viscous: 1.0057294e-08)
        CmPitch       : 0.0011789392	(pressure: 0.0011791994	viscous: -2.6021331e-07)
        CmYaw       : -6.7295306e-05	(pressure: -6.5361244e-05	viscous: -1.9340617e-06)
        Cd(f)    : -0.053374333
        Cd(r)    : -0.05337435
        Cs(f)    : -0.00031268502
        Cs(r)    : -0.00017809441
        Cl(f)    : -0.00015393854
        Cl(r)    : -0.002511817
forces force_computation write:
    Sum of forces
        Total    : (-6.2797001 -0.15681828 0.02887106)
        Pressure : (-13.612794 -0.1568949 0.02849854)
        Viscous  : (7.3330944 7.6613098e-05 0.0003725201)
    Sum of moments
        Total    : (6.6592775e-07 -0.0052651747 -0.09224003)
        Pressure : (-1.2095347e-07 -0.005113854 -0.092260389)
        Viscous  : (7.8688122e-07 -0.0001513207 2.0359051e-05)


Time = 20

smoothSolver:  Solving for Ux, Initial residual = 0.0023710132, Final residual = 7.6440203e-05, No Iterations 2
smoothSolver:  Solving for Uy, Initial residual = 0.032002499, Final residual = 0.001199745, No Iterations 2
smoothSolver:  Solving for Uz, Initial residual = 0.032005238, Final residual = 0.0012019159, No Iterations 2
GAMG:  Solving for p, Initial residual = 0.073594968, Final residual = 0.0004945912, No Iterations 4
GAMG:  Solving for p, Initial residual = 0.0036002718, Final residual = 2.8292981e-05, No Iterations 3
GAMG:  Solving for p, Initial residual = 0.00047684388, Final residual = 1.956332e-06, No Iterations 4
GAMG:  Solving for p, Initial residual = 9.3442033e-05, Final residual = 7.0035039e-07, No Iterations 3
GAMG:  Solving for p, Initial residual = 2.1997178e-05, Final residual = 2.0722978e-07, No Iterations 3
GAMG:  Solving for p, Initial residual = 6.0602775e-06, Final residual = 6.0264064e-08, No Iterations 3
time step continuity errors : sum local = 2.0302714e-08, global = 5.6152273e-09, cumulative = 2.729955e-08
smoothSolver:  Solving for omega, Initial residual = 0.0010457242, Final residual = 7.9768199e-05, No Iterations 2
smoothSolver:  Solving for k, Initial residual = 0.0039850242, Final residual = 0.00031138405, No Iterations 2
ExecutionTime = 5.36 s  ClockTime = 6 s

forceCoeffs forceCoeffs_cl execute:
    Coefficients
        Cd       : 0.022937858	(pressure: 0.0082976122	viscous: 0.014640246)
        Cs       : -5.8743169e-06	(pressure: -4.9360684e-06	viscous: -9.3824843e-07)
        Cl       : -0.00040953598	(pressure: -0.00040975486	viscous: 2.1887871e-07)
        CmRoll       : -1.0048692e-09	(pressure: -1.2738511e-09	viscous: 2.6898188e-10)
        CmPitch       : 0.00017232913	(pressure: 0.00017238858	viscous: -5.9453042e-08)
        CmYaw       : 1.4444936e-05	(pressure: 1.4781047e-05	viscous: -3.3611103e-07)
        Cd(f)    : 0.011468928
        Cd(r)    : 0.01146893
        Cs(f)    : 1.1507777e-05
        Cs(r)    : -1.7382094e-05
        Cl(f)    : -3.2438862e-05
        Cl(r)    : -0.00037709712
forceCoeffs forceCoeffs_cd execute:
    Coefficients
        Cd       : 0.19622516	(pressure: 0.070983099	viscous: 0.12524206)
        Cs       : -5.0252675e-05	(pressure: -4.2226296e-05	viscous: -8.026379e-06)
        Cl       : -0.0035034336	(pressure: -0.003505306	viscous: 1.8724289e-06)
        CmRoll       : -8.5962959e-09	(pressure: -1.0897339e-08	viscous: 2.3010436e-09)
        CmPitch       : 0.0014742139	(pressure: 0.0014747225	viscous: -5.0859947e-07)
        CmYaw       : 0.00012357125	(pressure: 0.00012644656	viscous: -2.8753094e-06)
        Cd(f)    : 0.098112569
        Cd(r)    : 0.098112587
        Cs(f)    : 9.8444912e-05
        Cs(r)    : -0.00014869759
        Cl(f)    : -0.00027750284
        Cl(r)    : -0.0032259307
forces force_computation write:
    Sum of forces
        Total    : (11.543329 -0.20609633 0.0029562119)
        Pressure : (4.1757196 -0.20620648 0.0024840445)
        Viscous  : (7.3676089 0.00011014929 0.00047216744)
    Sum of moments
        Total    : (-6.7257291e-07 0.0096681961 -0.11534228)
        Pressure : (-8.5260621e-07 0.0098931599 -0.11538207)
        Viscous  : (1.800333e-07 -0.00022496378 3.9792747e-05)


Time = 21

smoothSolver:  Solving for Ux, Initial residual = 0.0022851669, Final residual = 7.503281e-05, No Iterations 2
smoothSolver:  Solving for Uy, Initial residual = 0.024308741, Final residual = 0.00089650855, No Iterations 2
smoothSolver:  Solving for Uz, Initial residual = 0.02446645, Final residual = 0.00089477111, No Iterations 2
GAMG:  Solving for p, Initial residual = 0.042192303, Final residual = 0.00030762979, No Iterations 4
GAMG:  Solving for p, Initial residual = 0.0023286218, Final residual = 1.8583796e-05, No Iterations 3
GAMG:  Solving for p, Initial residual = 0.00031257567, Final residual = 1.3555557e-06, No Iterations 4
GAMG:  Solving for p, Initial residual = 6.2439592e-05, Final residual = 4.8383931e-07, No Iterations 3
GAMG:  Solving for p, Initial residual = 1.5196979e-05, Final residual = 1.499948e-07, No Iterations 3
GAMG:  Solving for p, Initial residual = 4.2991141e-06, Final residual = 9.0360824e-08, No Iterations 2
time step continuity errors : sum local = 4.4061006e-08, global = 1.8614487e-08, cumulative = 4.5914037e-08
smoothSolver:  Solving for omega, Initial residual = 0.00097086211, Final residual = 7.4197608e-05, No Iterations 2
smoothSolver:  Solving for k, Initial residual = 0.0036907619, Final residual = 0.00028948945, No Iterations 2
ExecutionTime = 5.62 s  ClockTime = 6 s

forceCoeffs forceCoeffs_cl execute:
    Coefficients
        Cd       : 0.068041064	(pressure: 0.053344479	viscous: 0.014696584)
        Cs       : 6.7653856e-05	(pressure: 6.8638093e-05	viscous: -9.8423699e-07)
        Cl       : -0.00042691779	(pressure: -0.00042681939	viscous: -9.8393991e-08)
        CmRoll       : -3.690265e-10	(pressure: -1.4221087e-09	viscous: 1.0530822e-09)
        CmPitch       : 0.00016987074	(pressure: 0.000169798	viscous: 7.2742312e-08)
        CmYaw       : 3.3163912e-05	(pressure: 3.355601e-05	viscous: -3.9209722e-07)
        Cd(f)    : 0.034020531
        Cd(r)    : 0.034020532
        Cs(f)    : 6.699084e-05
        Cs(r)    : 6.6301554e-07
        Cl(f)    : -4.3588153e-05
        Cl(r)    : -0.00038332963
forceCoeffs forceCoeffs_cd execute:
    Coefficients
        Cd       : 0.58206692	(pressure: 0.4563429	viscous: 0.12572401)
        Cs       : 0.00057875449	(pressure: 0.00058717429	viscous: -8.4197947e-06)
        Cl       : -0.0036521287	(pressure: -0.0036512869	viscous: -8.4172533e-07)
        CmRoll       : -3.1568894e-09	(pressure: -1.2165631e-08	viscous: 9.0087411e-09)
        CmPitch       : 0.0014531833	(pressure: 0.001452561	viscous: 6.2228441e-07)
        CmYaw       : 0.00028370539	(pressure: 0.00028705964	viscous: -3.3542512e-06)
        Cd(f)    : 0.29103345
        Cd(r)    : 0.29103346
        Cs(f)    : 0.00057308263
        Cs(r)    : 5.6718603e-06
        Cl(f)    : -0.00037288103
        Cl(r)    : -0.0032792476
forces force_computation write:
    Sum of forces
        Total    : (34.241225 -0.21484361 -0.034046365)
        Pressure : (26.845264 -0.21479409 -0.034541676)
        Viscous  : (7.3959609 -4.9516139e-05 0.00049531089)
    Sum of moments
        Total    : (-2.4699456e-07 0.022197067 -0.11369685)
        Pressure : (-9.5183712e-07 0.022459503 -0.11364816)
        Viscous  : (7.0484256e-07 -0.00026243611 -4.868744e-05)


Time = 22

smoothSolver:  Solving for Ux, Initial residual = 0.0022699893, Final residual = 7.5401294e-05, No Iterations 2
smoothSolver:  Solving for Uy, Initial residual = 0.024372756, Final residual = 0.00087079482, No Iterations 2
smoothSolver:  Solving for Uz, Initial residual = 0.024644036, Final residual = 0.0009043157, No Iterations 2
GAMG:  Solving for p, Initial residual = 0.021650436, Final residual = 0.00013066312, No Iterations 4
GAMG:  Solving for p, Initial residual = 0.0021781401, Final residual = 1.3562038e-05, No Iterations 3
GAMG:  Solving for p, Initial residual = 0.00027845473, Final residual = 2.3467898e-06, No Iterations 3
GAMG:  Solving for p, Initial residual = 5.4508992e-05, Final residual = 4.4342089e-07, No Iterations 3
GAMG:  Solving for p, Initial residual = 1.3138651e-05, Final residual = 1.0366778e-07, No Iterations 3
GAMG:  Solving for p, Initial residual = 3.3529531e-06, Final residual = 5.9522995e-08, No Iterations 2
time step continuity errors : sum local = 2.3381515e-08, global = 9.0275771e-09, cumulative = 5.4941614e-08
smoothSolver:  Solving for omega, Initial residual = 0.00089314933, Final residual = 6.8594312e-05, No Iterations 2
smoothSolver:  Solving for k, Initial residual = 0.0034101173, Final residual = 0.00026801196, No Iterations 2
ExecutionTime = 5.86 s  ClockTime = 6 s

forceCoeffs forceCoeffs_cl execute:
    Coefficients
        Cd       : 0.087813131	(pressure: 0.073083625	viscous: 0.014729507)
        Cs       : 0.00012306381	(pressure: 0.0001238157	viscous: -7.5189658e-07)
        Cl       : -0.00039729009	(pressure: -0.000396871	viscous: -4.1909326e-07)
        CmRoll       : 1.1093152e-09	(pressure: -4.3096963e-10	viscous: 1.5402848e-09)
        CmPitch       : 0.00015087886	(pressure: 0.00015067323	viscous: 2.0562517e-07)
        CmYaw       : 4.136717e-05	(pressure: 4.1677984e-05	viscous: -3.1081315e-07)
        Cd(f)    : 0.043906567
        Cd(r)    : 0.043906565
        Cs(f)    : 0.00010289907
        Cs(r)    : 2.0164734e-05
        Cl(f)    : -4.7766187e-05
        Cl(r)    : -0.0003495239
forceCoeffs forceCoeffs_cd execute:
    Coefficients
        Cd       : 0.75120987	(pressure: 0.62520422	viscous: 0.12600565)
        Cs       : 0.0010527668	(pressure: 0.001059199	viscous: -6.4322058e-06)
        Cl       : -0.0033986743	(pressure: -0.0033950891	viscous: -3.5851926e-06)
        CmRoll       : 9.4897941e-09	(pressure: -3.6867907e-09	viscous: 1.3176585e-08)
        CmPitch       : 0.0012907146	(pressure: 0.0012889555	viscous: 1.7590496e-06)
        CmYaw       : 0.00035388132	(pressure: 0.00035654021	viscous: -2.6588951e-06)
        Cd(f)    : 0.37560494
        Cd(r)    : 0.37560493
        Cs(f)    : 0.0008802647
        Cs(r)    : 0.00017250207
        Cl(f)    : -0.00040862261
        Cl(r)    : -0.0029900517
forces force_computation write:
    Sum of forces
        Total    : (44.19139 -0.19993366 -0.061931064)
        Pressure : (36.778861 -0.19972276 -0.062309451)
        Viscous  : (7.4125287 -0.00021090597 0.00037838709)
    Sum of moments
        Total    : (7.4248007e-07 0.027687621 -0.10098531)
        Pressure : (-2.8845396e-07 0.027895653 -0.10084769)
        Viscous  : (1.030934e-06 -0.00020803156 -0.00013762778)


Time = 23

smoothSolver:  Solving for Ux, Initial residual = 0.002239776, Final residual = 7.4382006e-05, No Iterations 2
smoothSolver:  Solving for Uy, Initial residual = 0.022740993, Final residual = 0.00079113054, No Iterations 2
smoothSolver:  Solving for Uz, Initial residual = 0.023052889, Final residual = 0.00081676779, No Iterations 2
GAMG:  Solving for p, Initial residual = 0.019120928, Final residual = 0.00010522797, No Iterations 4
GAMG:  Solving for p, Initial residual = 0.004300018, Final residual = 3.1567381e-05, No Iterations 3
GAMG:  Solving for p, Initial residual = 0.00062609599, Final residual = 2.9762183e-06, No Iterations 4
GAMG:  Solving for p, Initial residual = 0.00013248083, Final residual = 9.7037576e-07, No Iterations 3
GAMG:  Solving for p, Initial residual = 3.1966806e-05, Final residual = 2.9753648e-07, No Iterations 3
GAMG:  Solving for p, Initial residual = 8.7323189e-06, Final residual = 8.1889309e-08, No Iterations 3
time step continuity errors : sum local = 1.5280121e-08, global = -3.6925665e-09, cumulative = 5.1249048e-08
smoothSolver:  Solving for omega, Initial residual = 0.00081445829, Final residual = 6.2916175e-05, No Iterations 2
smoothSolver:  Solving for k, Initial residual = 0.0031350838, Final residual = 0.00024650226, No Iterations 2
ExecutionTime = 6.12 s  ClockTime = 7 s

forceCoeffs forceCoeffs_cl execute:
    Coefficients
        Cd       : 0.076377896	(pressure: 0.061636421	viscous: 0.014741475)
        Cs       : 0.00012980032	(pressure: 0.00013029657	viscous: -4.9624676e-07)
        Cl       : -0.00036396808	(pressure: -0.00036320735	viscous: -7.607375e-07)
        CmRoll       : 1.4508233e-10	(pressure: 9.618682e-10	viscous: -8.1678586e-10)
        CmPitch       : 0.00013629281	(pressure: 0.00013593896	viscous: 3.5385479e-07)
        CmYaw       : 3.7184774e-05	(pressure: 3.7390788e-05	viscous: -2.0601401e-07)
        Cd(f)    : 0.038188948
        Cd(r)    : 0.038188948
        Cs(f)    : 0.00010208493
        Cs(r)    : 2.7715387e-05
        Cl(f)    : -4.5691227e-05
        Cl(r)    : -0.00031827686
forceCoeffs forceCoeffs_cd execute:
    Coefficients
        Cd       : 0.65338553	(pressure: 0.5272775	viscous: 0.12610803)
        Cs       : 0.0011103952	(pressure: 0.0011146404	viscous: -4.2452131e-06)
        Cl       : -0.0031136165	(pressure: -0.0031071087	viscous: -6.5078367e-06)
        CmRoll       : 1.2411274e-09	(pressure: 8.2284377e-09	viscous: -6.9873104e-09)
        CmPitch       : 0.0011659362	(pressure: 0.0011629091	viscous: 3.0271009e-06)
        CmYaw       : 0.00031810242	(pressure: 0.00031986479	viscous: -1.7623761e-06)
        Cd(f)    : 0.32669276
        Cd(r)    : 0.32669276
        Cs(f)    : 0.00087330003
        Cs(r)    : 0.0002370952
        Cl(f)    : -0.00039087207
        Cl(r)    : -0.0027227444
forces force_computation write:
    Sum of forces
        Total    : (38.436681 -0.18316458 -0.065321171)
        Pressure : (31.01813 -0.18278174 -0.065570904)
        Viscous  : (7.4185516 -0.00038283622 0.00024973296)
    Sum of moments
        Total    : (9.7105619e-08 0.024888285 -0.091222673)
        Pressure : (6.4379174e-07 0.025026174 -0.090985833)
        Viscous  : (-5.4668612e-07 -0.00013788804 -0.00023683992)


Time = 24

smoothSolver:  Solving for Ux, Initial residual = 0.0020129103, Final residual = 6.4240679e-05, No Iterations 2
smoothSolver:  Solving for Uy, Initial residual = 0.018804845, Final residual = 0.0006490978, No Iterations 2
smoothSolver:  Solving for Uz, Initial residual = 0.019007686, Final residual = 0.00065337567, No Iterations 2
GAMG:  Solving for p, Initial residual = 0.02147947, Final residual = 0.00012586891, No Iterations 4
GAMG:  Solving for p, Initial residual = 0.012800644, Final residual = 9.5102658e-05, No Iterations 3
GAMG:  Solving for p, Initial residual = 0.0025971811, Final residual = 1.2018026e-05, No Iterations 4
GAMG:  Solving for p, Initial residual = 0.00060386014, Final residual = 4.470333e-06, No Iterations 3
GAMG:  Solving for p, Initial residual = 0.00014043635, Final residual = 1.2412182e-06, No Iterations 3
GAMG:  Solving for p, Initial residual = 3.7198619e-05, Final residual = 3.2506652e-07, No Iterations 3
time step continuity errors : sum local = 1.4265317e-08, global = -3.864033e-09, cumulative = 4.7385015e-08
smoothSolver:  Solving for omega, Initial residual = 0.00074770706, Final residual = 5.758395e-05, No Iterations 2
smoothSolver:  Solving for k, Initial residual = 0.0028836098, Final residual = 0.00022678472, No Iterations 2
ExecutionTime = 6.37 s  ClockTime = 7 s

forceCoeffs forceCoeffs_cl execute:
    Coefficients
        Cd       : 0.051344675	(pressure: 0.0366015	viscous: 0.014743175)
        Cs       : 9.6451346e-05	(pressure: 9.6775131e-05	viscous: -3.2378542e-07)
        Cl       : -0.00034919328	(pressure: -0.00034816408	viscous: -1.029205e-06)
        CmRoll       : -2.0965291e-09	(pressure: 2.1273088e-09	viscous: -4.2238379e-09)
        CmPitch       : 0.00013690101	(pressure: 0.00013643586	viscous: 4.651446e-07)
        CmYaw       : 2.8858111e-05	(pressure: 2.898936e-05	viscous: -1.3124925e-07)
        Cd(f)    : 0.025672335
        Cd(r)    : 0.02567234
        Cs(f)    : 7.7083784e-05
        Cs(r)    : 1.9367562e-05
        Cl(f)    : -3.7695635e-05
        Cl(r)    : -0.00031149765
forceCoeffs forceCoeffs_cd execute:
    Coefficients
        Cd       : 0.43923529	(pressure: 0.31311271	viscous: 0.12612258)
        Cs       : 0.0008251067	(pressure: 0.00082787657	viscous: -2.7698682e-06)
[...]
GAMG:  Solving for p, Initial residual = 1.0811363e-05, Final residual = 4.3173048e-08, No Iterations 3
GAMG:  Solving for p, Initial residual = 2.5798944e-06, Final residual = 4.9620226e-08, No Iterations 2
GAMG:  Solving for p, Initial residual = 7.4800597e-07, Final residual = 4.6217041e-08, No Iterations 1
time step continuity errors : sum local = 5.867836e-09, global = 8.3167536e-10, cumulative = 5.2834418e-08
smoothSolver:  Solving for omega, Initial residual = 6.8610134e-05, Final residual = 6.1051484e-06, No Iterations 2
smoothSolver:  Solving for k, Initial residual = 0.00033901053, Final residual = 2.8867154e-05, No Iterations 2
ExecutionTime = 18.32 s  ClockTime = 19 s

forceCoeffs forceCoeffs_cl execute:
    Coefficients
        Cd       : 0.035955813	(pressure: 0.0237589	viscous: 0.012196913)
        Cs       : 0.0007031968	(pressure: 0.00069850976	viscous: 4.6870386e-06)
        Cl       : -0.0016983607	(pressure: -0.0016875006	viscous: -1.086013e-05)
        CmRoll       : 4.6922825e-09	(pressure: 1.3962347e-10	viscous: 4.552659e-09)
        CmPitch       : 0.00063296938	(pressure: 0.00062847	viscous: 4.4993741e-06)
        CmYaw       : 0.00025986287	(pressure: 0.00025788785	viscous: 1.9750187e-06)
        Cd(f)    : 0.017977911
        Cd(r)    : 0.017977902
        Cs(f)    : 0.00061146127
        Cs(r)    : 9.173553e-05
        Cl(f)    : -0.00021621097
        Cl(r)    : -0.0014821497
forceCoeffs forceCoeffs_cd execute:
    Coefficients
        Cd       : 0.3075891	(pressure: 0.20324887	viscous: 0.10434022)
        Cs       : 0.0060155966	(pressure: 0.0059755007	viscous: 4.0095935e-05)
        Cl       : -0.014528867	(pressure: -0.014435963	viscous: -9.2904516e-05)
        CmRoll       : 4.0140795e-08	(pressure: 1.1944287e-09	viscous: 3.8946366e-08)
        CmPitch       : 0.0054148262	(pressure: 0.0053763357	viscous: 3.8490533e-05)
        CmYaw       : 0.0022230337	(pressure: 0.0022061382	viscous: 1.6895577e-05)
        Cd(f)    : 0.15379459
        Cd(r)    : 0.15379451
        Cs(f)    : 0.0052308321
        Cs(r)    : 0.00078476458
        Cl(f)    : -0.0018496073
        Cl(r)    : -0.01267926
forces force_computation write:
    Sum of forces
        Total    : (18.09453 -0.85468902 -0.35387924)
        Pressure : (11.956512 -0.84922373 -0.35152051)
        Viscous  : (6.1380177 -0.0054652898 -0.0023587218)
    Sum of moments
        Total    : (3.1406098e-06 0.17392983 -0.42365519)
        Pressure : (9.3451926e-08 0.17260792 -0.4206437)
        Viscous  : (3.0471579e-06 0.0013219074 -0.0030114935)


Time = 74

smoothSolver:  Solving for Ux, Initial residual = 0.00025372534, Final residual = 9.1382658e-06, No Iterations 2
smoothSolver:  Solving for Uy, Initial residual = 0.0014898222, Final residual = 5.4225635e-05, No Iterations 2
smoothSolver:  Solving for Uz, Initial residual = 0.0014953967, Final residual = 5.5318714e-05, No Iterations 2
GAMG:  Solving for p, Initial residual = 0.0015571549, Final residual = 1.3717172e-05, No Iterations 4
GAMG:  Solving for p, Initial residual = 0.00026205563, Final residual = 1.9134427e-06, No Iterations 3
GAMG:  Solving for p, Initial residual = 4.2785397e-05, Final residual = 4.2696878e-07, No Iterations 3
GAMG:  Solving for p, Initial residual = 1.0206503e-05, Final residual = 5.4139061e-08, No Iterations 3
GAMG:  Solving for p, Initial residual = 2.4260412e-06, Final residual = 4.9072718e-08, No Iterations 2
GAMG:  Solving for p, Initial residual = 6.904048e-07, Final residual = 4.4311203e-08, No Iterations 1
time step continuity errors : sum local = 5.6228573e-09, global = 5.7349598e-10, cumulative = 5.3407914e-08
smoothSolver:  Solving for omega, Initial residual = 6.7079695e-05, Final residual = 5.9745392e-06, No Iterations 2
smoothSolver:  Solving for k, Initial residual = 0.00033224724, Final residual = 2.8293299e-05, No Iterations 2
ExecutionTime = 18.57 s  ClockTime = 19 s

forceCoeffs forceCoeffs_cl execute:
    Coefficients
        Cd       : 0.035855219	(pressure: 0.023701352	viscous: 0.012153867)
        Cs       : 0.00073402528	(pressure: 0.00072913604	viscous: 4.8892386e-06)
        Cl       : -0.0017574564	(pressure: -0.0017463082	viscous: -1.1148198e-05)
        CmRoll       : 4.593193e-09	(pressure: 1.1918787e-10	viscous: 4.4740051e-09)
        CmPitch       : 0.00065524012	(pressure: 0.00065062265	viscous: 4.6174694e-06)
        CmYaw       : 0.0002714646	(pressure: 0.00026940181	viscous: 2.0627856e-06)
        Cd(f)    : 0.017927614
        Cd(r)    : 0.017927605
        Cs(f)    : 0.00063847724
        Cs(r)    : 9.5548044e-05
        Cl(f)    : -0.00022348807
        Cl(r)    : -0.0015339683
forceCoeffs forceCoeffs_cd execute:
    Coefficients
        Cd       : 0.30672855	(pressure: 0.20275657	viscous: 0.10397198)
        Cs       : 0.0062793232	(pressure: 0.0062374975	viscous: 4.1825684e-05)
        Cl       : -0.01503441	(pressure: -0.014939041	viscous: -9.5368835e-05)
        CmRoll       : 3.929312e-08	(pressure: 1.0196095e-09	viscous: 3.827351e-08)
        CmPitch       : 0.0056053444	(pressure: 0.0055658436	viscous: 3.9500796e-05)
        CmYaw       : 0.0023222823	(pressure: 0.0023046359	viscous: 1.7646392e-05)
        Cd(f)    : 0.15336431
        Cd(r)    : 0.15336424
        Cs(f)    : 0.0054619439
        Cs(r)    : 0.00081737928
        Cl(f)    : -0.0019118604
        Cl(r)    : -0.013122549
forces force_computation write:
    Sum of forces
        Total    : (18.043907 -0.88442854 -0.36939347)
        Pressure : (11.927552 -0.87881828 -0.36693299)
        Viscous  : (6.1163548 -0.0056102582 -0.0024604776)
    Sum of moments
        Total    : (3.0742878e-06 0.18169502 -0.43856131)
        Pressure : (7.9774099e-08 0.18031437 -0.43547077)
        Viscous  : (2.9945137e-06 0.0013806511 -0.0030905364)


Time = 75

smoothSolver:  Solving for Ux, Initial residual = 0.00024854711, Final residual = 8.8661343e-06, No Iterations 2
smoothSolver:  Solving for Uy, Initial residual = 0.0014671394, Final residual = 5.3904529e-05, No Iterations 2
smoothSolver:  Solving for Uz, Initial residual = 0.0014657301, Final residual = 5.492147e-05, No Iterations 2
GAMG:  Solving for p, Initial residual = 0.0015366027, Final residual = 1.3422153e-05, No Iterations 4
GAMG:  Solving for p, Initial residual = 0.00025996265, Final residual = 1.8469679e-06, No Iterations 3
GAMG:  Solving for p, Initial residual = 4.1893624e-05, Final residual = 4.0779382e-07, No Iterations 3
GAMG:  Solving for p, Initial residual = 1.0141838e-05, Final residual = 5.2915471e-08, No Iterations 3
GAMG:  Solving for p, Initial residual = 2.4334306e-06, Final residual = 4.9119911e-08, No Iterations 2
GAMG:  Solving for p, Initial residual = 6.968118e-07, Final residual = 4.5688702e-08, No Iterations 1
time step continuity errors : sum local = 5.7953624e-09, global = 3.3862521e-10, cumulative = 5.3746539e-08
smoothSolver:  Solving for omega, Initial residual = 6.5660411e-05, Final residual = 5.848587e-06, No Iterations 2
smoothSolver:  Solving for k, Initial residual = 0.00032596147, Final residual = 2.7738678e-05, No Iterations 2
ExecutionTime = 18.81 s  ClockTime = 19 s

forceCoeffs forceCoeffs_cl execute:
    Coefficients
        Cd       : 0.035757034	(pressure: 0.023644928	viscous: 0.012112106)
        Cs       : 0.00076614917	(pressure: 0.00076104473	viscous: 5.1044409e-06)
        Cl       : -0.0018193948	(pressure: -0.001807924	viscous: -1.1470784e-05)
        CmRoll       : 4.5102012e-09	(pressure: 9.5893894e-11	viscous: 4.4143073e-09)
        CmPitch       : 0.0006784775	(pressure: 0.00067372636	viscous: 4.7511409e-06)
        CmYaw       : 0.00028352014	(pressure: 0.00028136383	viscous: 2.1563148e-06)
        Cd(f)    : 0.017878521
        Cd(r)    : 0.017878512
        Cs(f)    : 0.00066659473
        Cs(r)    : 9.9554442e-05
        Cl(f)    : -0.00023121992
        Cl(r)    : -0.0015881749
forceCoeffs forceCoeffs_cd execute:
    Coefficients
        Cd       : 0.30588861	(pressure: 0.20227388	viscous: 0.10361473)
        Cs       : 0.0065541316	(pressure: 0.0065104649	viscous: 4.3666662e-05)
        Cl       : -0.015564271	(pressure: -0.015466142	viscous: -9.8128443e-05)
        CmRoll       : 3.8583155e-08	(pressure: 8.203379e-10	viscous: 3.7762817e-08)
        CmPitch       : 0.0058041318	(pressure: 0.0057634875	viscous: 4.0644307e-05)
        CmYaw       : 0.0024254132	(pressure: 0.0024069667	viscous: 1.84465e-05)
        Cd(f)    : 0.15294434
        Cd(r)    : 0.15294427
        Cs(f)    : 0.005702479
        Cs(r)    : 0.00085165257
        Cl(f)    : -0.0019780035
        Cl(r)    : -0.013586267
forces force_computation write:
    Sum of forces
        Total    : (17.994496 -0.91559866 -0.38555961)
        Pressure : (11.899157 -0.90982606 -0.38299083)
        Viscous  : (6.0953391 -0.0057725975 -0.0025687768)
    Sum of moments
        Total    : (3.0187403e-06 0.18976397 -0.45411441)
        Pressure : (6.4183115e-08 0.18832072 -0.4509344)
        Viscous  : (2.9545572e-06 0.0014432514 -0.0031800046)


Time = 76

smoothSolver:  Solving for Ux, Initial residual = 0.00024352918, Final residual = 8.5980326e-06, No Iterations 2
smoothSolver:  Solving for Uy, Initial residual = 0.0014508208, Final residual = 5.4028961e-05, No Iterations 2
smoothSolver:  Solving for Uz, Initial residual = 0.0014448705, Final residual = 5.4946382e-05, No Iterations 2
GAMG:  Solving for p, Initial residual = 0.0015111725, Final residual = 1.3120369e-05, No Iterations 4
GAMG:  Solving for p, Initial residual = 0.0002568582, Final residual = 1.7947967e-06, No Iterations 3
GAMG:  Solving for p, Initial residual = 4.1242268e-05, Final residual = 3.8645771e-07, No Iterations 3
GAMG:  Solving for p, Initial residual = 9.9486683e-06, Final residual = 5.6514845e-08, No Iterations 3
GAMG:  Solving for p, Initial residual = 2.4271933e-06, Final residual = 5.0339884e-08, No Iterations 2
GAMG:  Solving for p, Initial residual = 7.013528e-07, Final residual = 5.0411828e-08, No Iterations 1
time step continuity errors : sum local = 6.393196e-09, global = 2.3374113e-11, cumulative = 5.3769913e-08
smoothSolver:  Solving for omega, Initial residual = 6.4291484e-05, Final residual = 5.7258191e-06, No Iterations 2
smoothSolver:  Solving for k, Initial residual = 0.0003198489, Final residual = 2.7199759e-05, No Iterations 2
ExecutionTime = 19.05 s  ClockTime = 19 s

forceCoeffs forceCoeffs_cl execute:
    Coefficients
        Cd       : 0.035661891	(pressure: 0.023590264	viscous: 0.012071627)
        Cs       : 0.00079959737	(pressure: 0.00079426406	viscous: 5.3333105e-06)
        Cl       : -0.0018840728	(pressure: -0.0018722435	viscous: -1.1829346e-05)
        CmRoll       : 4.4326494e-09	(pressure: 6.9400875e-11	viscous: 4.3632485e-09)
        CmPitch       : 0.0007026698	(pressure: 0.00069776884	viscous: 4.9009586e-06)
        CmYaw       : 0.000296029	(pressure: 0.00029377313	viscous: 2.2558642e-06)
        Cd(f)    : 0.01783095
        Cd(r)    : 0.017830941
        Cs(f)    : 0.00069582768
        Cs(r)    : 0.00010376969
        Cl(f)    : -0.00023936662
        Cl(r)    : -0.0016447062
forceCoeffs forceCoeffs_cd execute:
    Coefficients
        Cd       : 0.3050747	(pressure: 0.20180626	viscous: 0.10326844)
        Cs       : 0.006840269	(pressure: 0.0067946444	viscous: 4.562456e-05)
        Cl       : -0.016117568	(pressure: -0.016016372	viscous: -0.00010119581)
        CmRoll       : 3.7919727e-08	(pressure: 5.9369962e-10	viscous: 3.7326027e-08)
        CmPitch       : 0.0060110883	(pressure: 0.0059691624	viscous: 4.1925945e-05)
        CmYaw       : 0.002532422	(pressure: 0.0025131239	viscous: 1.9298109e-05)
        Cd(f)    : 0.15253739
        Cd(r)    : 0.15253731
        Cs(f)    : 0.0059525564
        Cs(r)    : 0.0008877125
        Cl(f)    : -0.0020476956
        Cl(r)    : -0.014069872
forces force_computation write:
    Sum of forces
        Total    : (17.946616 -0.94814745 -0.4023922)
        Pressure : (11.871648 -0.94219441 -0.39970824)
        Viscous  : (6.074968 -0.0059530416 -0.002683954)
    Sum of moments
        Total    : (2.9668338e-06 0.19813632 -0.47030665)
        Pressure : (4.645097e-08 0.19662644 -0.46702637)
        Viscous  : (2.9203828e-06 0.0015098812 -0.0032802796)


Time = 77

smoothSolver:  Solving for Ux, Initial residual = 0.00023847537, Final residual = 8.3295151e-06, No Iterations 2
smoothSolver:  Solving for Uy, Initial residual = 0.0014431253, Final residual = 5.4635984e-05, No Iterations 2
smoothSolver:  Solving for Uz, Initial residual = 0.001433069, Final residual = 5.5327511e-05, No Iterations 2
GAMG:  Solving for p, Initial residual = 0.0014947077, Final residual = 1.2639465e-05, No Iterations 4
GAMG:  Solving for p, Initial residual = 0.00025278865, Final residual = 1.74057e-06, No Iterations 3
GAMG:  Solving for p, Initial residual = 4.0515399e-05, Final residual = 3.8428209e-07, No Iterations 3
GAMG:  Solving for p, Initial residual = 9.9922174e-06, Final residual = 6.5076355e-08, No Iterations 3
GAMG:  Solving for p, Initial residual = 2.4867217e-06, Final residual = 5.6887739e-08, No Iterations 2
GAMG:  Solving for p, Initial residual = 7.4139239e-07, Final residual = 6.0569178e-08, No Iterations 1
time step continuity errors : sum local = 7.6810541e-09, global = -2.8460368e-10, cumulative = 5.348531e-08
smoothSolver:  Solving for omega, Initial residual = 6.29253e-05, Final residual = 5.6046833e-06, No Iterations 2
smoothSolver:  Solving for k, Initial residual = 0.00031405391, Final residual = 2.6676692e-05, No Iterations 2
ExecutionTime = 19.3 s  ClockTime = 20 s

forceCoeffs forceCoeffs_cl execute:
    Coefficients
        Cd       : 0.035569682	(pressure: 0.023537262	viscous: 0.01203242)
        Cs       : 0.00083423008	(pressure: 0.00082865408	viscous: 5.5759953e-06)
        Cl       : -0.001951521	(pressure: -0.0019392963	viscous: -1.2224631e-05)
        CmRoll       : 4.3517803e-09	(pressure: 4.0371343e-11	viscous: 4.311409e-09)
        CmPitch       : 0.00072784579	(pressure: 0.00072277844	viscous: 5.0673555e-06)
        CmYaw       : 0.0003089486	(pressure: 0.00030658709	viscous: 2.3615178e-06)
        Cd(f)    : 0.017784845
        Cd(r)    : 0.017784837
        Cs(f)    : 0.00072606364
        Cs(r)    : 0.00010816643
        Cl(f)    : -0.00024791469
        Cl(r)    : -0.0017036063
forceCoeffs forceCoeffs_cd execute:
    Coefficients
        Cd       : 0.30428588	(pressure: 0.20135284	viscous: 0.10293304)
        Cs       : 0.0071365393	(pressure: 0.0070888387	viscous: 4.7700641e-05)
        Cl       : -0.016694562	(pressure: -0.016589985	viscous: -0.00010457734)
        CmRoll       : 3.7227921e-08	(pressure: 3.4536237e-10	viscous: 3.6882559e-08)
        CmPitch       : 0.0062264599	(pressure: 0.0061831105	viscous: 4.334941e-05)
        CmYaw       : 0.0026429446	(pressure: 0.0026227427	viscous: 2.0201938e-05)
        Cd(f)    : 0.15214298
        Cd(r)    : 0.1521429
        Cs(f)    : 0.0062112143
        Cs(r)    : 0.00092532507
        Cl(f)    : -0.0021208213
        Cl(r)    : -0.014573741
forces force_computation write:
    Sum of forces
        Total    : (17.900212 -0.98209028 -0.41982088)
        Pressure : (11.844974 -0.97593832 -0.4170148)
        Viscous  : (6.0552374 -0.0061519663 -0.0028060835)
    Sum of moments
        Total    : (2.912707e-06 0.20678359 -0.48715729)
        Pressure : (2.70211e-08 0.20520299 -0.48376564)
        Viscous  : (2.8856859e-06 0.0015805966 -0.0033916514)


Time = 78

smoothSolver:  Solving for Ux, Initial residual = 0.00023329214, Final residual = 8.0506395e-06, No Iterations 2
smoothSolver:  Solving for Uy, Initial residual = 0.0014429727, Final residual = 5.5373013e-05, No Iterations 2
smoothSolver:  Solving for Uz, Initial residual = 0.0014296536, Final residual = 5.5898822e-05, No Iterations 2
GAMG:  Solving for p, Initial residual = 0.0014861164, Final residual = 1.2004878e-05, No Iterations 4
GAMG:  Solving for p, Initial residual = 0.00024845423, Final residual = 1.6857394e-06, No Iterations 3
GAMG:  Solving for p, Initial residual = 3.9772526e-05, Final residual = 3.8216148e-07, No Iterations 3
GAMG:  Solving for p, Initial residual = 1.0096617e-05, Final residual = 7.2710336e-08, No Iterations 3
GAMG:  Solving for p, Initial residual = 2.5092751e-06, Final residual = 6.140907e-08, No Iterations 2
GAMG:  Solving for p, Initial residual = 7.5947242e-07, Final residual = 6.6641949e-08, No Iterations 1
time step continuity errors : sum local = 8.451844e-09, global = -6.2970967e-10, cumulative = 5.28556e-08
smoothSolver:  Solving for omega, Initial residual = 6.1607517e-05, Final residual = 5.4844005e-06, No Iterations 2
smoothSolver:  Solving for k, Initial residual = 0.00030833538, Final residual = 2.6164793e-05, No Iterations 2
ExecutionTime = 19.54 s  ClockTime = 20 s

forceCoeffs forceCoeffs_cl execute:
    Coefficients
        Cd       : 0.035479703	(pressure: 0.023485227	viscous: 0.011994476)
        Cs       : 0.00087009138	(pressure: 0.00086425876	viscous: 5.8326275e-06)
        Cl       : -0.0020216582	(pressure: -0.0020090012	viscous: -1.2657091e-05)
        CmRoll       : 4.2471719e-09	(pressure: 8.4695001e-12	viscous: 4.2387024e-09)
        CmPitch       : 0.00075398463	(pressure: 0.0007487341	viscous: 5.2505343e-06)
        CmYaw       : 0.00032232011	(pressure: 0.00031984676	viscous: 2.4733565e-06)
        Cd(f)    : 0.017739856
        Cd(r)    : 0.017739847
        Cs(f)    : 0.00075736581
        Cs(r)    : 0.00011272558
        Cl(f)    : -0.00025684449
        Cl(r)    : -0.0017648138
forceCoeffs forceCoeffs_cd execute:
    Coefficients
        Cd       : 0.30351615	(pressure: 0.2009077	viscous: 0.10260844)
        Cs       : 0.00744332	(pressure: 0.0073934239	viscous: 4.9896038e-05)
        Cl       : -0.017294562	(pressure: -0.017186285	viscous: -0.00010827687)
        CmRoll       : 3.6333034e-08	(pressure: 7.2453538e-11	viscous: 3.626058e-08)
        CmPitch       : 0.0064500683	(pressure: 0.0064051519	viscous: 4.4916439e-05)
        CmYaw       : 0.0027573331	(pressure: 0.0027361744	viscous: 2.1158678e-05)
        Cd(f)    : 0.15175811
        Cd(r)    : 0.15175804
        Cs(f)    : 0.006478993
        Cs(r)    : 0.00096432693
        Cl(f)    : -0.0021972125
        Cl(r)    : -0.015097349
forces force_computation write:
    Sum of forces
        Total    : (17.854931 -1.0173864 -0.43786785)
        Pressure : (11.818788 -1.0110168 -0.43493262)
        Viscous  : (6.0361424 -0.0063695988 -0.002935232)
    Sum of moments
        Total    : (2.8426911e-06 0.21573333 -0.50465238)
        Pressure : (5.668754e-09 0.21407788 -0.50113813)
        Viscous  : (2.8370224e-06 0.0016554518 -0.0035142555)


Time = 79

smoothSolver:  Solving for Ux, Initial residual = 0.00022804628, Final residual = 7.7596466e-06, No Iterations 2
smoothSolver:  Solving for Uy, Initial residual = 0.0014483649, Final residual = 5.6160025e-05, No Iterations 2
smoothSolver:  Solving for Uz, Initial residual = 0.0014307823, Final residual = 5.6462674e-05, No Iterations 2
GAMG:  Solving for p, Initial residual = 0.001479512, Final residual = 1.1315545e-05, No Iterations 4
GAMG:  Solving for p, Initial residual = 0.00024693522, Final residual = 1.646897e-06, No Iterations 3
GAMG:  Solving for p, Initial residual = 3.9384384e-05, Final residual = 3.684094e-07, No Iterations 3
GAMG:  Solving for p, Initial residual = 1.0139151e-05, Final residual = 6.7757371e-08, No Iterations 3
GAMG:  Solving for p, Initial residual = 2.4924646e-06, Final residual = 5.6303946e-08, No Iterations 2
GAMG:  Solving for p, Initial residual = 7.5307241e-07, Final residual = 5.9802404e-08, No Iterations 1
time step continuity errors : sum local = 7.5868113e-09, global = -5.8696648e-10, cumulative = 5.2268634e-08
smoothSolver:  Solving for omega, Initial residual = 6.0368127e-05, Final residual = 5.3657037e-06, No Iterations 2
