/*---------------------------------------------------------------------------*\
| =========                 |                                                 |
| \\      /  F ield         | OpenFOAM: The Open Source CFD Toolbox           |
|  \\    /   O peration     | Version:  2112                                  |
|   \\  /    A nd           | Website:  www.openfoam.com                      |
|    \\/     M anipulation  |                                                 |
\*---------------------------------------------------------------------------*/
Build  : _d44c8318-20220111 OPENFOAM=2112 version=2112
Arch   : "LSB;label=32;scalar=64"
Exec   : snappyHexMesh -parallel -decomposeParDict system/decomposeParDict.6 -overwrite
Date   : Jul 04 2022
Time   : 23:32:05
Host   : 13639cff52bc
PID    : 493
I/O    : uncollated
Case   : /home/aimed_user/dexof_work/dir_rough_mesh_8cores_swordfish1_aoa_0
nProcs : 8
Hosts  :
(
    (13639cff52bc 8)
)
Pstream initialized with:
    floatTransfer      : 0
    nProcsSimpleSum    : 0
    commsType          : nonBlocking
    polling iterations : 0
trapFpe: Floating point exception trapping enabled (FOAM_SIGFPE).
fileModificationChecking : Monitoring run-time modified files using timeStampMaster (fileModificationSkew 5, maxFileModificationPolls 20)
allowSystemOperations : Allowing user-supplied system call operations

// * * * * * * * * * * * * * * * * * * * * * * * * * * * * * * * * * * * * * //
Create time

Create mesh for time = 0

Read mesh in = 0.01 s

Overall mesh bounding box  : (-1.33 -0.76400006 -0.76376253) (3.9900001 0.76400006 0.76376253)
Relative tolerance         : 1e-05
Absolute matching distance : 5.7419961e-05

Reading refinement surfaces.
Read refinement surfaces in = 0.08 s

Reading refinement shells.
--> FOAM Warning : 
    From Foam::shellSurfaces::shellSurfaces(const Foam::searchableSurfaces&, const Foam::dictionary&, bool)
    in file shellSurfaces/shellSurfaces.C at line 798
    Reading "system/snappyHexMeshDict.castellatedMeshControls.refinementRegions" at line 125 to 126
    Not all entries in refinementRegions dictionary were used. The following entries were not used : 1(refinementBox)
Read refinement shells in = 0 s

Setting refinement level of surface to be consistent with shells.
For geometry airfoil detected 0 uncached triangles out of 40090
Checked shell refinement in = 0.14 s

Reading features.
Read edgeMesh UUV.eMesh
    points      : 85
    edges       : 81
    boundingBox : (-0.65549397 -0.001709 -0.00223) (0.67450601 0.0047189998 0.0029730001)

Refinement level according to distance to "UUV.eMesh" (85 points, 81 edges).
    level 0 for all cells within 0 metre.
Read features in = 0 s


Determining initial surface intersections
-----------------------------------------

Edge intersection testing:
    Number of edges             : 4235
    Number of edges to retest   : 0
    Number of intersected edges : 0
Edge intersection testing:
    Number of edges             : 4235
    Number of edges to retest   : 4235
    Number of intersected edges : 30
Calculated surface intersections in = 0 s

Initial mesh : cells:1274  faces:4235  points:1728
Cells per refinement level:
    0	1274

Adding patches for surface regions
----------------------------------

Patch Type                Region                        
----- ----                ------                        
airfoil:

3     wall                airfoil                       

Added patches in = 0 s

Edge intersection testing:
    Number of edges             : 4235
    Number of edges to retest   : 0
    Number of intersected edges : 30
Decomposition method hierarchical [8]

Refinement phase
----------------

Found point (3.9368001 0.74872006 0.74848728) in cell 159 on processor 7

Feature refinement iteration 0
------------------------------

Marked for refinement due to explicit features             : 0 cells.
Determined cells to refine in = 0 s
Selected for feature refinement : 0 cells (out of 1274)
Stopping refining since too few cells selected.


Surface refinement iteration 0
------------------------------

Marked for refinement due to surface intersection          : 37 cells.
Marked for refinement due to curvature/regions             : 0 cells.
Determined cells to refine in = 0 s
Selected for refinement : 37 cells (out of 1274)
Edge intersection testing:
    Number of edges             : 5165
    Number of edges to retest   : 1338
    Number of intersected edges : 80
Refined mesh in = 0.01 s
After refinement surface refinement iteration 0 : cells:1533  faces:5165  points:2155
Cells per refinement level:
    0	1237
    1	296
Balanced mesh in = 0 s
After balancing surface refinement iteration 0 : cells:1533  faces:5165  points:2155
Cells per refinement level:
    0	1237
    1	296

Surface refinement iteration 1
------------------------------

Marked for refinement due to surface intersection          : 104 cells.
Marked for refinement due to curvature/regions             : 0 cells.
Determined cells to refine in = 0.01 s
Selected for refinement : 124 cells (out of 1533)
Edge intersection testing:
    Number of edges             : 8033
    Number of edges to retest   : 3960
    Number of intersected edges : 296
Refined mesh in = 0 s
After refinement surface refinement iteration 1 : cells:2401  faces:8033  points:3305
Cells per refinement level:
    0	1217
    1	352
    2	832
Balanced mesh in = 0.01 s
After balancing surface refinement iteration 1 : cells:2401  faces:8033  points:3305
Cells per refinement level:
    0	1217
    1	352
    2	832

Surface refinement iteration 2
------------------------------

Marked for refinement due to surface intersection          : 352 cells.
Marked for refinement due to curvature/regions             : 0 cells.
Determined cells to refine in = 0.01 s
Selected for refinement : 368 cells (out of 2401)
Edge intersection testing:
    Number of edges             : 16685
    Number of edges to retest   : 11400
    Number of intersected edges : 988
Refined mesh in = 0 s
After refinement surface refinement iteration 2 : cells:4977  faces:16685  points:6822
Cells per refinement level:
    0	1217
    1	328
    2	680
    3	2752
Balanced mesh in = 0.02 s
After balancing surface refinement iteration 2 : cells:4977  faces:16685  points:6822
Cells per refinement level:
    0	1217
    1	328
    2	680
    3	2752

Surface refinement iteration 3
------------------------------

Marked for refinement due to surface intersection          : 1376 cells.
Marked for refinement due to curvature/regions             : 0 cells.
Determined cells to refine in = 0 s
Selected for refinement : 1520 cells (out of 4977)
Edge intersection testing:
    Number of edges             : 51533
    Number of edges to retest   : 44356
    Number of intersected edges : 4400
Refined mesh in = 0.03 s
After refinement surface refinement iteration 3 : cells:15617  faces:51533  points:20424
Cells per refinement level:
    0	1209
    1	372
    2	692
    3	2592
    4	10752
Balanced mesh in = 0.03 s
After balancing surface refinement iteration 3 : cells:15617  faces:51533  points:20424
Cells per refinement level:
    0	1209
    1	372
    2	692
    3	2592
    4	10752

Surface refinement iteration 4
------------------------------

Marked for refinement due to surface intersection          : 5682 cells.
Marked for refinement due to curvature/regions             : 0 cells.
Determined cells to refine in = 0.01 s
Selected for refinement : 6512 cells (out of 15617)
Edge intersection testing:
    Number of edges             : 201905
    Number of edges to retest   : 190862
    Number of intersected edges : 17474
Refined mesh in = 0.07 s
After refinement surface refinement iteration 4 : cells:61201  faces:201905  points:79663
Cells per refinement level:
    0	1209
    1	340
    2	820
    3	2826
    4	11510
    5	44496
Balanced mesh in = 0.1 s
After balancing surface refinement iteration 4 : cells:61201  faces:201905  points:79663
Cells per refinement level:
    0	1209
    1	340
    2	820
    3	2826
    4	11510
    5	44496

Surface refinement iteration 5
------------------------------

Marked for refinement due to surface intersection          : 466 cells.
Marked for refinement due to curvature/regions             : 0 cells.
Determined cells to refine in = 0.02 s
Selected for refinement : 566 cells (out of 61201)
Edge intersection testing:
    Number of edges             : 214823
    Number of edges to retest   : 23427
    Number of intersected edges : 18590
Refined mesh in = 0.05 s
After refinement surface refinement iteration 5 : cells:65163  faces:214823  points:84648
Cells per refinement level:
    0	1205
    1	364
    2	852
    3	3006
    4	11672
    5	48064
Balanced mesh in = 0.09 s
After balancing surface refinement iteration 5 : cells:65163  faces:214823  points:84648
Cells per refinement level:
    0	1205
    1	364
    2	852
    3	3006
    4	11672
    5	48064

Surface refinement iteration 6
------------------------------

Marked for refinement due to surface intersection          : 100 cells.
Marked for refinement due to curvature/regions             : 18 cells.
Determined cells to refine in = 0.02 s
Selected for refinement : 134 cells (out of 65163)
Edge intersection testing:
    Number of edges             : 218024
    Number of edges to retest   : 5474
    Number of intersected edges : 18920
Refined mesh in = 0.05 s
After refinement surface refinement iteration 6 : cells:66101  faces:218024  points:86001
Cells per refinement level:
    0	1205
    1	360
    2	880
    3	3022
    4	11708
    5	48782
    6	144
Balanced mesh in = 0.08 s
After balancing surface refinement iteration 6 : cells:66101  faces:218024  points:86001
Cells per refinement level:
    0	1205
    1	360
    2	880
    3	3022
    4	11708
    5	48782
    6	144

Surface refinement iteration 7
------------------------------

Marked for refinement due to surface intersection          : 24 cells.
Marked for refinement due to curvature/regions             : 146 cells.
Determined cells to refine in = 0.02 s
Selected for refinement : 222 cells (out of 66101)
Edge intersection testing:
    Number of edges             : 223523
    Number of edges to retest   : 8610
    Number of intersected edges : 19604
Refined mesh in = 0.05 s
After refinement surface refinement iteration 7 : cells:67655  faces:223523  points:88466
Cells per refinement level:
    0	1201
    1	380
    2	964
    3	3106
    4	11768
    5	48924
    6	1312
Balanced mesh in = 0.09 s
After balancing surface refinement iteration 7 : cells:67655  faces:223523  points:88466
Cells per refinement level:
    0	1201
    1	380
    2	964
    3	3106
    4	11768
    5	48924
    6	1312

Surface refinement iteration 8
------------------------------

Marked for refinement due to surface intersection          : 4 cells.
Marked for refinement due to curvature/regions             : 158 cells.
Determined cells to refine in = 0.02 s
Selected for refinement : 200 cells (out of 67655)
Edge intersection testing:
    Number of edges             : 228332
    Number of edges to retest   : 8842
    Number of intersected edges : 20182
Refined mesh in = 0.05 s
After refinement surface refinement iteration 8 : cells:69055  faces:228332  points:90539
Cells per refinement level:
    0	1201
    1	380
    2	964
    3	3094
    4	11840
    5	48998
    6	2210
    7	368
Balanced mesh in = 0.11 s
After balancing surface refinement iteration 8 : cells:69055  faces:228332  points:90539
Cells per refinement level:
    0	1201
    1	380
    2	964
    3	3094
    4	11840
    5	48998
    6	2210
    7	368

Surface refinement iteration 9
------------------------------

Marked for refinement due to surface intersection          : 4 cells.
Marked for refinement due to curvature/regions             : 183 cells.
Determined cells to refine in = 0.02 s
Selected for refinement : 237 cells (out of 69055)
Edge intersection testing:
    Number of edges             : 234101
    Number of edges to retest   : 9737
    Number of intersected edges : 20929
Refined mesh in = 0.06 s
After refinement surface refinement iteration 9 : cells:70714  faces:234101  points:93059
Cells per refinement level:
    0	1201
    1	380
    2	964
    3	3082
    4	11922
    5	49052
    6	2521
    7	1592
Balanced mesh in = 0.09 s
After balancing surface refinement iteration 9 : cells:70714  faces:234101  points:93059
Cells per refinement level:
    0	1201
    1	380
    2	964
    3	3082
    4	11922
    5	49052
    6	2521
    7	1592

Surface refinement iteration 10
------------------------------

Marked for refinement due to surface intersection          : 0 cells.
Marked for refinement due to curvature/regions             : 101 cells.
Determined cells to refine in = 0.02 s
Selected for refinement : 105 cells (out of 70714)
Edge intersection testing:
    Number of edges             : 236588
    Number of edges to retest   : 4891
    Number of intersected edges : 21156
Refined mesh in = 0.06 s
After refinement surface refinement iteration 10 : cells:71449  faces:236588  points:94078
Cells per refinement level:
    0	1201
    1	380
    2	964
    3	3082
    4	11922
    5	49044
    6	2488
    7	2368
Balanced mesh in = 0.1 s
After balancing surface refinement iteration 10 : cells:71449  faces:236588  points:94078
Cells per refinement level:
    0	1201
    1	380
    2	964
    3	3082
    4	11922
    5	49044
    6	2488
    7	2368

Surface refinement iteration 11
------------------------------

Marked for refinement due to surface intersection          : 0 cells.
Marked for refinement due to curvature/regions             : 36 cells.
Determined cells to refine in = 0.02 s
Selected for refinement : 56 cells (out of 71449)
Stopping refining since too few cells selected.


Removing mesh beyond surface intersections
------------------------------------------

Setting cellZones according to locationsInMesh:
Location : (3.9368001 0.74872006 0.74848728)
    cellZone : none

For cellZone none found point (3.9368001 0.74872006 0.74848728) in global region 0 out of 2 regions.
Keeping all cells containing inside points
Selected for keeping : 71449 cells.
Edge intersection testing:
    Number of edges             : 236588
    Number of edges to retest   : 0
    Number of intersected edges : 21156
Setting cellZones according to locationsInMesh:
Location : (3.9368001 0.74872006 0.74848728)
    cellZone : none

For cellZone none found point (3.9368001 0.74872006 0.74848728) in global region 0 out of 2 regions.
Keeping all cells containing inside points
Selected for keeping : 61517 cells.
Edge intersection testing:
    Number of edges             : 210159
    Number of edges to retest   : 16640
    Number of intersected edges : 21156

Shell refinement iteration 0
----------------------------

Marked for refinement due to distance to explicit features : 0 cells.
Marked for refinement due to refinement shells             : 0 cells.
Determined cells to refine in = 0.11 s
Selected for internal refinement : 9997 cells (out of 61517)
Edge intersection testing:
    Number of edges             : 425880
    Number of edges to retest   : 364440
    Number of intersected edges : 22735
Refined mesh in = 0.14 s
After refinement shell refinement iteration 0 : cells:131496  faces:425880  points:162966
Cells per refinement level:
    0	1051
    1	1320
    2	2456
    3	5804
    4	14866
    5	87154
    6	7843
    7	11002
Balanced mesh in = 0.21 s
After balancing shell refinement iteration 0 : cells:131496  faces:425880  points:162966
Cells per refinement level:
    0	1051
    1	1320
    2	2456
    3	5804
    4	14866
    5	87154
    6	7843
    7	11002

Shell refinement iteration 1
----------------------------

Marked for refinement due to distance to explicit features : 0 cells.
Marked for refinement due to refinement shells             : 0 cells.
Determined cells to refine in = 0.03 s
Selected for internal refinement : 3938 cells (out of 131496)
Balanced mesh in = 0.16 s
After balancing shell refinement iteration 1 : cells:131496  faces:425880  points:162968
Cells per refinement level:
    0	1051
    1	1320
    2	2456
    3	5804
    4	14866
    5	87154
    6	7843
    7	11002
Edge intersection testing:
    Number of edges             : 511071
    Number of edges to retest   : 203447
    Number of intersected edges : 23356
Refined mesh in = 0.13 s
After refinement shell refinement iteration 1 : cells:159062  faces:511071  points:193016
Cells per refinement level:
    0	881
    1	2372
    2	4404
    3	8842
    4	22927
    5	91771
    6	12543
    7	15322

Shell refinement iteration 2
----------------------------

Marked for refinement due to distance to explicit features : 0 cells.
Marked for refinement due to refinement shells             : 0 cells.
Determined cells to refine in = 0.03 s
Selected for internal refinement : 685 cells (out of 159062)
Balanced mesh in = 0.2 s
After balancing shell refinement iteration 2 : cells:159062  faces:511071  points:193020
Cells per refinement level:
    0	881
    1	2372
    2	4404
    3	8842
    4	22927
    5	91771
    6	12543
    7	15322
Edge intersection testing:
    Number of edges             : 525870
    Number of edges to retest   : 46615
    Number of intersected edges : 23416
Refined mesh in = 0.13 s
After refinement shell refinement iteration 2 : cells:163857  faces:525870  points:198234
Cells per refinement level:
    0	817
    1	2836
    2	4584
    3	10366
    4	23684
    5	92525
    6	13307
    7	15738

Shell refinement iteration 3
----------------------------

Marked for refinement due to distance to explicit features : 0 cells.
Marked for refinement due to refinement shells             : 0 cells.
Determined cells to refine in = 0.03 s
Selected for internal refinement : 184 cells (out of 163857)
Balanced mesh in = 0.19 s
After balancing shell refinement iteration 3 : cells:163857  faces:525870  points:198234
Cells per refinement level:
    0	817
    1	2836
    2	4584
    3	10366
    4	23684
    5	92525
    6	13307
    7	15738
Edge intersection testing:
    Number of edges             : 529830
    Number of edges to retest   : 13201
    Number of intersected edges : 23416
Refined mesh in = 0.12 s
After refinement shell refinement iteration 3 : cells:165145  faces:529830  points:199618
Cells per refinement level:
    0	809
    1	2832
    2	5076
    3	10736
    4	24042
    5	92605
    6	13307
    7	15738

Shell refinement iteration 4
----------------------------

Marked for refinement due to distance to explicit features : 0 cells.
Marked for refinement due to refinement shells             : 0 cells.
Determined cells to refine in = 0.04 s
Selected for internal refinement : 106 cells (out of 165145)
Balanced mesh in = 0.19 s
After balancing shell refinement iteration 4 : cells:165145  faces:529830  points:199618
Cells per refinement level:
    0	809
    1	2832
    2	5076
    3	10736
    4	24042
    5	92605
    6	13307
    7	15738
Edge intersection testing:
    Number of edges             : 532128
    Number of edges to retest   : 7490
    Number of intersected edges : 23416
Refined mesh in = 0.12 s
After refinement shell refinement iteration 4 : cells:165887  faces:532128  points:200432
Cells per refinement level:
    0	753
    1	3240
    2	5396
    3	10726
    4	24122
    5	92605
    6	13307
    7	15738

Shell refinement iteration 5
----------------------------

Marked for refinement due to distance to explicit features : 0 cells.
Marked for refinement due to refinement shells             : 0 cells.
Determined cells to refine in = 0.03 s
Selected for internal refinement : 0 cells (out of 165887)
Stopping refining since too few cells selected.


Dangling coarse cells refinement iteration 0
--------------------------------------------

Determined cells to refine in = 0.01 s
Selected for refinement : 0 cells (out of 165887)
Stopping refining since too few cells selected.


Dangling coarse cells refinement iteration 0
--------------------------------------------

Determined cells to refine in = 0 s
Selected for refinement : 0 cells (out of 165887)
Stopping refining since too few cells selected.


Refinement transition refinement iteration 0
--------------------------------------------

Determined cells to refine in = 0 s
Selected for refinement : 20 cells (out of 165887)
Balanced mesh in = 0.2 s
After balancing interface cell refinement iteration 0 : cells:165887  faces:532128  points:200432
Cells per refinement level:
    0	753
    1	3240
    2	5396
    3	10726
    4	24122
    5	92605
    6	13307
    7	15738
Edge intersection testing:
    Number of edges             : 532572
    Number of edges to retest   : 1716
    Number of intersected edges : 23500
Refined mesh in = 0.11 s
After refinement interface cell refinement iteration 0 : cells:166027  faces:532572  points:200597
Cells per refinement level:
    0	753
    1	3240
    2	5396
    3	10726
    4	24122
    5	92605
    6	13287
    7	15898

Refinement transition refinement iteration 1
--------------------------------------------

Determined cells to refine in = 0.02 s
Selected for refinement : 0 cells (out of 166027)
Stopping refining since too few cells selected.


Splitting mesh at surface intersections
---------------------------------------

Introducing baffles for 23500 faces that are intersected by the surface.

Setting cellZones according to locationsInMesh:
Location : (3.9368001 0.74872006 0.74848728)
    cellZone : none

For cellZone none found point (3.9368001 0.74872006 0.74848728) in global region 0 out of 2 regions.
Edge intersection testing:
    Number of edges             : 556072
    Number of edges to retest   : 137213
    Number of intersected edges : 46812
Created baffles in = 0.1 s


After introducing baffles : cells:166027  faces:556072  points:200597
Cells per refinement level:
    0	753
    1	3240
    2	5396
    3	10726
    4	24122
    5	92605
    6	13287
    7	15898

Introducing baffles to block off problem cells
----------------------------------------------

markFacesOnProblemCells : marked 31613 additional internal faces to be converted into baffles.
Analyzed problem cells in = 0.08 s


Introducing baffles to delete problem cells.

Edge intersection testing:
    Number of edges             : 587685
    Number of edges to retest   : 105596
    Number of intersected edges : 46824
Created baffles in = 0.07 s


After introducing baffles : cells:166027  faces:587685  points:201154
Cells per refinement level:
    0	753
    1	3240
    2	5396
    3	10726
    4	24122
    5	92605
    6	13287
    7	15898
Setting cellZones according to locationsInMesh:
Location : (3.9368001 0.74872006 0.74848728)
    cellZone : none

For cellZone none found point (3.9368001 0.74872006 0.74848728) in global region 0 out of 14757 regions.
Edge intersection testing:
    Number of edges             : 587685
    Number of edges to retest   : 152771
    Number of intersected edges : 46824

Remove unreachable sections of mesh
-----------------------------------

Keeping all cells containing points 1((3.9368001 0.74872006 0.74848728))
Selected for keeping : 137848 cells.
Edge intersection testing:
    Number of edges             : 448368
    Number of edges to retest   : 0
    Number of intersected edges : 23418
Split mesh in = 0.2 s


After subsetting : cells:137848  faces:448368  points:172921
Cells per refinement level:
    0	753
    1	3240
    2	5396
    3	10726
    4	24122
    5	71998
    6	10635
    7	10978

Introducing zones for interfaces
--------------------------------

Setting cellZones according to locationsInMesh:
Location : (3.9368001 0.74872006 0.74848728)
    cellZone : none

For cellZone none found point (3.9368001 0.74872006 0.74848728) in global region 0 out of 1 regions.
Setting faceZones according to neighbouring cellZones:

Edge intersection testing:
    Number of edges             : 448368
    Number of edges to retest   : 0
    Number of intersected edges : 23418

Handling cells with snap problems
---------------------------------

Introducing baffles for 23418 faces that are intersected by the surface.

Setting cellZones according to locationsInMesh:
Location : (3.9368001 0.74872006 0.74848728)
    cellZone : none

For cellZone none found point (3.9368001 0.74872006 0.74848728) in global region 0 out of 1 regions.
Edge intersection testing:
    Number of edges             : 448368
    Number of edges to retest   : 71162
    Number of intersected edges : 23418
Created baffles in = 0.15 s


After introducing baffles : cells:137848  faces:448368  points:172921
Cells per refinement level:
    0	753
    1	3240
    2	5396
    3	10726
    4	24122
    5	71998
    6	10635
    7	10978

Introducing baffles to block off problem cells
----------------------------------------------

markFacesOnProblemCells : marked 0 additional internal faces to be converted into baffles.
Analyzed problem cells in = 0.07 s


Introducing baffles to delete problem cells.

Created baffles in = 0 s


After introducing baffles : cells:137848  faces:448368  points:172921
Cells per refinement level:
    0	753
    1	3240
    2	5396
    3	10726
    4	24122
    5	71998
    6	10635
    7	10978
Setting cellZones according to locationsInMesh:
Location : (3.9368001 0.74872006 0.74848728)
    cellZone : none

For cellZone none found point (3.9368001 0.74872006 0.74848728) in global region 0 out of 1 regions.
Edge intersection testing:
    Number of edges             : 448368
    Number of edges to retest   : 71162
    Number of intersected edges : 23418

Remove unreachable sections of mesh
-----------------------------------

Split mesh in = 0.1 s


After subsetting : cells:137848  faces:448368  points:172921
Cells per refinement level:
    0	753
    1	3240
    2	5396
    3	10726
    4	24122
    5	71998
    6	10635
    7	10978

Merge free-standing baffles
---------------------------

freeStandingBaffles : detected 12 free-standing baffles out of 12

freeStandingBaffles : detected 5 planar (within 30 degrees) free-standing baffles out of 12

Detected free-standing baffles : 5
Edge intersection testing:
    Number of edges             : 448363
    Number of edges to retest   : 5
    Number of intersected edges : 23413

Introducing baffles to block off problem cells
----------------------------------------------

markFacesOnProblemCells : marked 0 additional internal faces to be converted into baffles.
Analyzed problem cells in = 0.16 s


Introducing baffles to delete problem cells.

Created baffles in = 0 s


After introducing baffles : cells:137848  faces:448363  points:172921
Cells per refinement level:
    0	753
    1	3240
    2	5396
    3	10726
    4	24122
    5	71998
    6	10635
    7	10978

Remove unreachable sections of mesh
-----------------------------------

Merged free-standing baffles in = 0.02 s


dupNonManifoldPoints : Found : 5 non-manifold points (out of 183251)
Edge intersection testing:
    Number of edges             : 448363
    Number of edges to retest   : 0
    Number of intersected edges : 23413
Detected unsplittable baffles : 1
Edge intersection testing:
    Number of edges             : 448362
    Number of edges to retest   : 1
    Number of intersected edges : 23412
Merged free-standing baffles in = 0.15 s.

Merge refined boundary faces
----------------------------

Merging 60 sets of faces.

Edge intersection testing:
    Number of edges             : 448250
    Number of edges to retest   : 472
    Number of intersected edges : 23300

Undo iteration 0
----------------
Checking faces in error :
    non-orthogonality > 65  degrees                        : 0
    faces with face pyramid volume < 1e-13                 : 0
    faces with face-decomposition tet quality < 1e-30      : 0
    faces with concavity > 80  degrees                     : 0
    faces with skewness > 4   (internal) or 20  (boundary) : 0
    faces with interpolation weights (0..1)  < 0.05        : 0
    faces with volume ratio of neighbour cells < 0.01      : 0
    faces with face twist < 0.05                           : 0
    faces on cells with determinant < 0.001                : 0

Merging all points on surface that
- are used by only two boundary faces and
- make an angle with a cosine of more than 0.70710678.

Removing 76 straight edge points ...

Edge intersection testing:
    Number of edges             : 448250
    Number of edges to retest   : 500
    Number of intersected edges : 23300

Undo iteration 0
----------------
Checking faces in error :
    non-orthogonality > 65  degrees                        : 0
    faces with face pyramid volume < 1e-13                 : 0
    faces with face-decomposition tet quality < 1e-30      : 0
    faces with concavity > 80  degrees                     : 0
    faces with skewness > 4   (internal) or 20  (boundary) : 0
    faces with interpolation weights (0..1)  < 0.05        : 0
    faces with volume ratio of neighbour cells < 0.01      : 0
    faces with face twist < 0.05                           : 0
    faces on cells with determinant < 0.001                : 0

Doing final balancing
---------------------

Found 0 zoned faces to keep together.
Found 0 separated coupled faces to keep together.
Refined mesh : cells:137848  faces:448250  points:172832
Cells per refinement level:
    0	753
    1	3240
    2	5396
    3	10726
    4	24122
    5	71998
    6	10635
    7	10978
Writing mesh to time constant
Wrote mesh in = 0.44 s.
Mesh refined in = 5.06 s.

Morphing phase
--------------

Duplicating 0 points on faceZones of type boundary
Snapping to features in 10 iterations ...
Constructing mesh displacer ...
Using mesh parameters 
{
    maxNonOrtho     65;
    maxBoundarySkewness 20;
    maxInternalSkewness 4;
    maxConcave      80;
    minVol          1e-13;
    minTetQuality   1e-30;
    minArea         -1;
    minTwist        0.05;
    minDeterminant  0.001;
    minFaceWeight   0.05;
    minVolRatio     0.01;
    minTriangleTwist -1;
    nSmoothScale    4;
    errorReduction  0.75;
}


Checking initial mesh ...
Checking faces in error :
    non-orthogonality > 65  degrees                        : 0
    faces with face pyramid volume < 1e-13                 : 0
    faces with face-decomposition tet quality < 1e-30      : 0
    faces with concavity > 80  degrees                     : 0
    faces with skewness > 4   (internal) or 20  (boundary) : 0
    faces with interpolation weights (0..1)  < 0.05        : 0
    faces with volume ratio of neighbour cells < 0.01      : 0
    faces with face twist < 0.05                           : 0
    faces on cells with determinant < 0.001                : 0
Detected 0 illegal faces (concave, zero area or negative cell pyramid volume)
Checked initial mesh in = 0.08 s


Smoothing patch points ...
Smoothing iteration 0
Found 12 non-manifold point(s).

Scaling iteration 0
Moving mesh using displacement scaling : min:1  max:1
Checking faces in error :
    non-orthogonality > 65  degrees                        : 0
    faces with face pyramid volume < 1e-13                 : 0
    faces with face-decomposition tet quality < 1e-30      : 0
    faces with concavity > 80  degrees                     : 0
    faces with skewness > 4   (internal) or 20  (boundary) : 0
    faces with interpolation weights (0..1)  < 0.05        : 0
    faces with volume ratio of neighbour cells < 0.01      : 0
    faces with face twist < 0.05                           : 0
    faces on cells with determinant < 0.001                : 0
Successfully moved mesh

Smoothing iteration 1
Found 0 non-manifold point(s).

Scaling iteration 0
Moving mesh using displacement scaling : min:1  max:1
Checking faces in error :
    non-orthogonality > 65  degrees                        : 0
    faces with face pyramid volume < 1e-13                 : 0
    faces with face-decomposition tet quality < 1e-30      : 0
    faces with concavity > 80  degrees                     : 0
    faces with skewness > 4   (internal) or 20  (boundary) : 0
    faces with interpolation weights (0..1)  < 0.05        : 0
    faces with volume ratio of neighbour cells < 0.01      : 0
    faces with face twist < 0.05                           : 0
    faces on cells with determinant < 0.001                : 0
Successfully moved mesh

Smoothing iteration 2
Found 0 non-manifold point(s).

Scaling iteration 0
Moving mesh using displacement scaling : min:1  max:1
Checking faces in error :
    non-orthogonality > 65  degrees                        : 0
    faces with face pyramid volume < 1e-13                 : 0
    faces with face-decomposition tet quality < 1e-30      : 0
    faces with concavity > 80  degrees                     : 0
    faces with skewness > 4   (internal) or 20  (boundary) : 0
    faces with interpolation weights (0..1)  < 0.05        : 0
    faces with volume ratio of neighbour cells < 0.01      : 0
    faces with face twist < 0.05                           : 0
    faces on cells with determinant < 0.001                : 0
Successfully moved mesh

Patch points smoothed in = 0.21 s



Morph iteration 0
-----------------
Calculating patchDisplacement as distance to nearest surface point ...
    non-zone points : attract to nearest of all non-zone surfaces
    zone points     : attract to zone surface only

Wanted displacement : average:0.00076127839 min:4.7606595e-08 max:0.0030846418
Calculated surface displacement in = 0 s


Detecting near surfaces ...
Overriding nearest with intersection of close gaps at 0 out of 24472 points.
Overriding displacement on features :
   implicit features    : false
   explicit features    : true
   multi-patch features : false

Detected 0 baffle edges out of 47862 edges.
Baffle points     : 0 of which attracted to :
    feature point : 0
    feature edge  : 0
    rest          : 0

Initially selected 39 mesh points out of 24472 for reverse attraction.
Selected 119 mesh points out of 24472 for reverse attraction.
Stringing feature edges : changed 3 points
Stringing feature edges : changed 0 points
Attraction:
    linear   : max:(0.00010104287 -0.0030829864 3.4868719e-17) avg:(-7.423321e-06 2.5602274e-06 -6.4078093e-08)
    feature  : max:(0.0073079504 -0.00058400002 -0.0017467543) avg:(5.7161563e-08 2.0444043e-07 -2.045197e-08)
Feature analysis : total master points :23535 of which attracted to :
    feature point   : 3
    feature edge    : 18
    nearest surface : 0
    rest            : 23514

--> FOAM Warning : Displacement (-9.7046212e-07 -3.8370805e-06 5.58645e-07) at mesh point 3867 coord (-0.57754758 -0.02903987 -0.016711965) points through the surrounding patch faces
Smoothing displacement ...
Iteration 0
Iteration 10
Iteration 20
Displacement smoothed in = 0.12 s


Moving mesh ...

Iteration 0
Moving mesh using displacement scaling : min:1  max:1
Checking faces in error :
    non-orthogonality > 65  degrees                        : 0
    faces with face pyramid volume < 1e-13                 : 0
    faces with face-decomposition tet quality < 1e-30      : 0
    faces with concavity > 80  degrees                     : 0
    faces with skewness > 4   (internal) or 20  (boundary) : 0
    faces with interpolation weights (0..1)  < 0.05        : 0
    faces with volume ratio of neighbour cells < 0.01      : 0
    faces with face twist < 0.05                           : 0
    faces on cells with determinant < 0.001                : 0
Successfully moved mesh
Moved mesh in = 0.06 s



Morph iteration 1
-----------------
Calculating patchDisplacement as distance to nearest surface point ...
    non-zone points : attract to nearest of all non-zone surfaces
    zone points     : attract to zone surface only

Wanted displacement : average:0.00071217081 min:8.4765354e-08 max:0.0029227229
Calculated surface displacement in = 0.01 s


Detecting near surfaces ...
Overriding nearest with intersection of close gaps at 0 out of 24472 points.
Overriding displacement on features :
   implicit features    : false
   explicit features    : true
   multi-patch features : false

Detected 0 baffle edges out of 47862 edges.
Baffle points     : 0 of which attracted to :
    feature point : 0
    feature edge  : 0
    rest          : 0

Initially selected 40 mesh points out of 24472 for reverse attraction.
Selected 119 mesh points out of 24472 for reverse attraction.
Stringing feature edges : changed 3 points
Stringing feature edges : changed 0 points
Attraction:
    linear   : max:(9.5738929e-05 -0.0029211544 -1.2896249e-07) avg:(-6.7207608e-06 2.4874478e-06 -9.2274248e-08)
    feature  : max:(0.0073005282 -0.0005891417 -0.0017494534) avg:(8.3778642e-08 1.8658854e-07 2.5315781e-08)
Feature analysis : total master points :23535 of which attracted to :
    feature point   : 2
    feature edge    : 20
    nearest surface : 0
    rest            : 23513

--> FOAM Warning : Displacement (9.2247914e-07 -5.7741978e-06 3.6387313e-06) at mesh point 5716 coord (-0.5693708 -0.029072989 -0.022670037) points through the surrounding patch faces
Smoothing displacement ...
Iteration 0
Iteration 10
Iteration 20
Displacement smoothed in = 0.1 s


Moving mesh ...

Iteration 0
Moving mesh using displacement scaling : min:1  max:1
Checking faces in error :
    non-orthogonality > 65  degrees                        : 0
    faces with face pyramid volume < 1e-13                 : 0
    faces with face-decomposition tet quality < 1e-30      : 0
    faces with concavity > 80  degrees                     : 0
    faces with skewness > 4   (internal) or 20  (boundary) : 0
    faces with interpolation weights (0..1)  < 0.05        : 0
    faces with volume ratio of neighbour cells < 0.01      : 0
    faces with face twist < 0.05                           : 0
    faces on cells with determinant < 0.001                : 0
Successfully moved mesh
Moved mesh in = 0.06 s



Morph iteration 2
-----------------
Calculating patchDisplacement as distance to nearest surface point ...
    non-zone points : attract to nearest of all non-zone surfaces
    zone points     : attract to zone surface only

Wanted displacement : average:0.00062014203 min:1.0696381e-08 max:0.0026058258
Calculated surface displacement in = 0.01 s


Detecting near surfaces ...
Overriding nearest with intersection of close gaps at 0 out of 24472 points.
Overriding displacement on features :
   implicit features    : false
   explicit features    : true
   multi-patch features : false

Detected 0 baffle edges out of 47862 edges.
Baffle points     : 0 of which attracted to :
    feature point : 0
    feature edge  : 0
    rest          : 0

Initially selected 40 mesh points out of 24472 for reverse attraction.
Selected 119 mesh points out of 24472 for reverse attraction.
Stringing feature edges : changed 2 points
Stringing feature edges : changed 0 points
Attraction:
    linear   : max:(8.5358406e-05 -0.0026044273 -3.6962973e-07) avg:(-5.4484838e-06 1.9921899e-06 -6.2678838e-08)
    feature  : max:(0.0072875446 -0.00062829518 -0.0017498363) avg:(1.060265e-07 1.4682655e-07 1.1344791e-08)
Feature analysis : total master points :23535 of which attracted to :
    feature point   : 2
    feature edge    : 20
    nearest surface : 0
    rest            : 23513

--> FOAM Warning : Displacement (4.7504308e-06 1.2902772e-06 -5.1126317e-06) at mesh point 4624 coord (-0.40284754 1.7230526e-06 -0.07585953) points through the surrounding patch faces
Smoothing displacement ...
Iteration 0
Iteration 10
Iteration 20
Displacement smoothed in = 0.1 s


Moving mesh ...

Iteration 0
Moving mesh using displacement scaling : min:1  max:1
Checking faces in error :
    non-orthogonality > 65  degrees                        : 0
    faces with face pyramid volume < 1e-13                 : 0
    faces with face-decomposition tet quality < 1e-30      : 0
    faces with concavity > 80  degrees                     : 0
    faces with skewness > 4   (internal) or 20  (boundary) : 0
    faces with interpolation weights (0..1)  < 0.05        : 0
    faces with volume ratio of neighbour cells < 0.01      : 0
    faces with face twist < 0.05                           : 0
    faces on cells with determinant < 0.001                : 0
Successfully moved mesh
Moved mesh in = 0.06 s



Morph iteration 3
-----------------
Calculating patchDisplacement as distance to nearest surface point ...
    non-zone points : attract to nearest of all non-zone surfaces
    zone points     : attract to zone surface only

Wanted displacement : average:0.00050270775 min:5.0452177e-08 max:0.0022187472
Calculated surface displacement in = 0.01 s


Detecting near surfaces ...
Overriding nearest with intersection of close gaps at 0 out of 24472 points.
Overriding displacement on features :
   implicit features    : false
   explicit features    : true
   multi-patch features : false

Detected 0 baffle edges out of 47862 edges.
Baffle points     : 0 of which attracted to :
    feature point : 0
    feature edge  : 0
    rest          : 0

Initially selected 40 mesh points out of 24472 for reverse attraction.
Selected 119 mesh points out of 24472 for reverse attraction.
Stringing feature edges : changed 2 points
Stringing feature edges : changed 0 points
Attraction:
    linear   : max:(0.00046718296 0.002088292 -0.00058618746) avg:(-3.8900132e-06 1.4006944e-06 -2.6865224e-08)
    feature  : max:(0.0072711845 -0.00067898178 -0.0017528884) avg:(7.7090684e-08 1.6551734e-07 2.2419609e-08)
Feature analysis : total master points :23535 of which attracted to :
    feature point   : 2
    feature edge    : 21
    nearest surface : 0
    rest            : 23512

--> FOAM Warning : Displacement (-1.0373096e-05 -4.353097e-07 -6.285554e-05) at mesh point 303 coord (-0.51206049 -9.2256379e-07 -0.055780909) points through the surrounding patch faces
Smoothing displacement ...
Iteration 0
Iteration 10
Iteration 20
Displacement smoothed in = 0.1 s


Moving mesh ...

Iteration 0
Moving mesh using displacement scaling : min:1  max:1
Checking faces in error :
    non-orthogonality > 65  degrees                        : 0
    faces with face pyramid volume < 1e-13                 : 0
    faces with face-decomposition tet quality < 1e-30      : 0
    faces with concavity > 80  degrees                     : 0
    faces with skewness > 4   (internal) or 20  (boundary) : 0
    faces with interpolation weights (0..1)  < 0.05        : 0
    faces with volume ratio of neighbour cells < 0.01      : 0
    faces with face twist < 0.05                           : 0
    faces on cells with determinant < 0.001                : 0
Successfully moved mesh
Moved mesh in = 0.06 s



Morph iteration 4
-----------------
Calculating patchDisplacement as distance to nearest surface point ...
    non-zone points : attract to nearest of all non-zone surfaces
    zone points     : attract to zone surface only

Wanted displacement : average:0.00038027304 min:8.4435475e-09 max:0.002168426
Calculated surface displacement in = 0.01 s


Detecting near surfaces ...
Overriding nearest with intersection of close gaps at 0 out of 24472 points.
Overriding displacement on features :
   implicit features    : false
   explicit features    : true
   multi-patch features : false

Detected 2 baffle edges out of 47862 edges.
Baffle points     : 3 of which attracted to :
    feature point : 0
    feature edge  : 3
    rest          : 0

Initially selected 38 mesh points out of 24472 for reverse attraction.
Selected 118 mesh points out of 24472 for reverse attraction.
Stringing feature edges : changed 1 points
Stringing feature edges : changed 0 points
Attraction:
    linear   : max:(0.00045676307 0.0021028515 -0.0002673095) avg:(-2.4073701e-06 8.4255046e-07 3.9104492e-09)
    feature  : max:(0.0072747628 -0.00071909323 -0.0017652777) avg:(1.0161582e-07 1.8595485e-07 2.9715938e-09)
Feature analysis : total master points :23535 of which attracted to :
    feature point   : 2
    feature edge    : 19
    nearest surface : 0
    rest            : 23514

--> FOAM Warning : Displacement (-1.2156347e-05 -2.0119612e-05 -1.8923676e-05) at mesh point 3445 coord (-0.46066774 -0.048071351 -0.048053235) points through the surrounding patch faces
Smoothing displacement ...
Iteration 0
Iteration 10
Iteration 20
Displacement smoothed in = 0.11 s


Moving mesh ...

Iteration 0
Moving mesh using displacement scaling : min:1  max:1
Checking faces in error :
    non-orthogonality > 65  degrees                        : 0
    faces with face pyramid volume < 1e-13                 : 0
    faces with face-decomposition tet quality < 1e-30      : 0
    faces with concavity > 80  degrees                     : 0
    faces with skewness > 4   (internal) or 20  (boundary) : 0
    faces with interpolation weights (0..1)  < 0.05        : 0
    faces with volume ratio of neighbour cells < 0.01      : 0
    faces with face twist < 0.05                           : 0
    faces on cells with determinant < 0.001                : 0
Successfully moved mesh
Moved mesh in = 0.06 s



Morph iteration 5
-----------------
Calculating patchDisplacement as distance to nearest surface point ...
    non-zone points : attract to nearest of all non-zone surfaces
    zone points     : attract to zone surface only

Wanted displacement : average:0.00026633648 min:4.5333216e-08 max:0.0020763567
Calculated surface displacement in = 0.01 s


Detecting near surfaces ...
Overriding nearest with intersection of close gaps at 0 out of 24472 points.
Overriding displacement on features :
   implicit features    : false
   explicit features    : true
   multi-patch features : false

Detected 2 baffle edges out of 47862 edges.
Baffle points     : 3 of which attracted to :
    feature point : 0
    feature edge  : 3
    rest          : 0

Initially selected 41 mesh points out of 24472 for reverse attraction.
Selected 118 mesh points out of 24472 for reverse attraction.
Stringing feature edges : changed 2 points
Stringing feature edges : changed 0 points
Attraction:
    linear   : max:(0.00043736934 0.0020135664 -0.00025595979) avg:(-1.2484768e-06 4.1048265e-07 -1.056731e-09)
    feature  : max:(0.0072806846 -0.00076496922 -0.0017808961) avg:(5.9276249e-08 8.5551705e-08 1.5358456e-08)
Feature analysis : total master points :23535 of which attracted to :
    feature point   : 2
    feature edge    : 21
    nearest surface : 0
    rest            : 23512

--> FOAM Warning : Displacement (-1.580458e-05 -3.7566804e-05 -3.6509536e-05) at mesh point 3445 coord (-0.4606799 -0.04809147 -0.048072159) points through the surrounding patch faces
Smoothing displacement ...
Iteration 0
Iteration 10
Iteration 20
Displacement smoothed in = 0.11 s


Moving mesh ...

Iteration 0
Moving mesh using displacement scaling : min:1  max:1
Checking faces in error :
    non-orthogonality > 65  degrees                        : 0
    faces with face pyramid volume < 1e-13                 : 0
    faces with face-decomposition tet quality < 1e-30      : 1
    faces with concavity > 80  degrees                     : 0
    faces with skewness > 4   (internal) or 20  (boundary) : 0
    faces with interpolation weights (0..1)  < 0.05        : 0
    faces with volume ratio of neighbour cells < 0.01      : 0
    faces with face twist < 0.05                           : 0
    faces on cells with determinant < 0.001                : 0

Iteration 1
Moving mesh using displacement scaling : min:0.75  max:1
Checking faces in error :
    non-orthogonality > 65  degrees                        : 0
    faces with face pyramid volume < 1e-13                 : 0
    faces with face-decomposition tet quality < 1e-30      : 0
    faces with concavity > 80  degrees                     : 0
    faces with skewness > 4   (internal) or 20  (boundary) : 0
    faces with interpolation weights (0..1)  < 0.05        : 0
    faces with volume ratio of neighbour cells < 0.01      : 0
    faces with face twist < 0.05                           : 3
    faces on cells with determinant < 0.001                : 0

Iteration 2
Moving mesh using displacement scaling : min:0.5625  max:1
Checking faces in error :
    non-orthogonality > 65  degrees                        : 0
    faces with face pyramid volume < 1e-13                 : 0
    faces with face-decomposition tet quality < 1e-30      : 0
    faces with concavity > 80  degrees                     : 0
    faces with skewness > 4   (internal) or 20  (boundary) : 0
    faces with interpolation weights (0..1)  < 0.05        : 0
    faces with volume ratio of neighbour cells < 0.01      : 0
    faces with face twist < 0.05                           : 1
    faces on cells with determinant < 0.001                : 0

Iteration 3
Moving mesh using displacement scaling : min:0.421875  max:1
Checking faces in error :
    non-orthogonality > 65  degrees                        : 0
    faces with face pyramid volume < 1e-13                 : 0
    faces with face-decomposition tet quality < 1e-30      : 0
    faces with concavity > 80  degrees                     : 0
    faces with skewness > 4   (internal) or 20  (boundary) : 0
    faces with interpolation weights (0..1)  < 0.05        : 0
    faces with volume ratio of neighbour cells < 0.01      : 0
    faces with face twist < 0.05                           : 1
    faces on cells with determinant < 0.001                : 0

Iteration 4
Moving mesh using displacement scaling : min:0.31640625  max:1
Checking faces in error :
    non-orthogonality > 65  degrees                        : 0
    faces with face pyramid volume < 1e-13                 : 0
    faces with face-decomposition tet quality < 1e-30      : 0
    faces with concavity > 80  degrees                     : 0
    faces with skewness > 4   (internal) or 20  (boundary) : 0
    faces with interpolation weights (0..1)  < 0.05        : 0
    faces with volume ratio of neighbour cells < 0.01      : 0
    faces with face twist < 0.05                           : 1
    faces on cells with determinant < 0.001                : 0

Iteration 5
Displacement scaling for error reduction set to 0.
Moving mesh using displacement scaling : min:0.23730469  max:1
Checking faces in error :
    non-orthogonality > 65  degrees                        : 0
    faces with face pyramid volume < 1e-13                 : 0
    faces with face-decomposition tet quality < 1e-30      : 0
    faces with concavity > 80  degrees                     : 0
    faces with skewness > 4   (internal) or 20  (boundary) : 0
    faces with interpolation weights (0..1)  < 0.05        : 0
    faces with volume ratio of neighbour cells < 0.01      : 0
    faces with face twist < 0.05                           : 1
    faces on cells with determinant < 0.001                : 0

Iteration 6
Moving mesh using displacement scaling : min:0  max:1
Checking faces in error :
    non-orthogonality > 65  degrees                        : 0
    faces with face pyramid volume < 1e-13                 : 0
    faces with face-decomposition tet quality < 1e-30      : 0
    faces with concavity > 80  degrees                     : 0
    faces with skewness > 4   (internal) or 20  (boundary) : 0
    faces with interpolation weights (0..1)  < 0.05        : 0
    faces with volume ratio of neighbour cells < 0.01      : 0
    faces with face twist < 0.05                           : 2
    faces on cells with determinant < 0.001                : 0

Iteration 7
Moving mesh using displacement scaling : min:0  max:1
Checking faces in error :
    non-orthogonality > 65  degrees                        : 0
    faces with face pyramid volume < 1e-13                 : 0
    faces with face-decomposition tet quality < 1e-30      : 0
    faces with concavity > 80  degrees                     : 0
    faces with skewness > 4   (internal) or 20  (boundary) : 0
    faces with interpolation weights (0..1)  < 0.05        : 0
    faces with volume ratio of neighbour cells < 0.01      : 0
    faces with face twist < 0.05                           : 0
    faces on cells with determinant < 0.001                : 0
Successfully moved mesh
Moved mesh in = 0.26 s



Morph iteration 6
-----------------
Calculating patchDisplacement as distance to nearest surface point ...
    non-zone points : attract to nearest of all non-zone surfaces
    zone points     : attract to zone surface only

Wanted displacement : average:0.00016363735 min:4.0071672e-10 max:0.0020763567
Calculated surface displacement in = 0.01 s


Detecting near surfaces ...
Overriding nearest with intersection of close gaps at 0 out of 24472 points.
Overriding displacement on features :
   implicit features    : false
   explicit features    : true
   multi-patch features : false

Detected 2 baffle edges out of 47862 edges.
Baffle points     : 3 of which attracted to :
    feature point : 0
    feature edge  : 3
    rest          : 0

Initially selected 37 mesh points out of 24472 for reverse attraction.
Selected 118 mesh points out of 24472 for reverse attraction.
Stringing feature edges : changed 4 points
Stringing feature edges : changed 1 points
Stringing feature edges : changed 0 points
Attraction:
    linear   : max:(0.00043736934 0.0020135664 -0.00025595979) avg:(-5.0983384e-07 1.9224542e-07 -5.1360835e-09)
    feature  : max:(0.0072806846 -0.00076496922 -0.0017808961) avg:(-2.6934902e-08 8.2031153e-08 -3.0973997e-08)
Feature analysis : total master points :23535 of which attracted to :
    feature point   : 3
    feature edge    : 21
    nearest surface : 0
    rest            : 23511

--> FOAM Warning : Displacement (-1.3725511e-05 -3.9327766e-05 -3.8530681e-05) at mesh point 3445 coord (-0.4606957 -0.048129037 -0.048108668) points through the surrounding patch faces
Smoothing displacement ...
Iteration 0
Iteration 10
Iteration 20
Displacement smoothed in = 0.1 s


Moving mesh ...

Iteration 0
Moving mesh using displacement scaling : min:1  max:1
Checking faces in error :
    non-orthogonality > 65  degrees                        : 0
    faces with face pyramid volume < 1e-13                 : 0
    faces with face-decomposition tet quality < 1e-30      : 4
    faces with concavity > 80  degrees                     : 0
    faces with skewness > 4   (internal) or 20  (boundary) : 0
    faces with interpolation weights (0..1)  < 0.05        : 0
    faces with volume ratio of neighbour cells < 0.01      : 0
    faces with face twist < 0.05                           : 1
    faces on cells with determinant < 0.001                : 0

Iteration 1
Moving mesh using displacement scaling : min:0.75  max:1
Checking faces in error :
    non-orthogonality > 65  degrees                        : 0
    faces with face pyramid volume < 1e-13                 : 0
    faces with face-decomposition tet quality < 1e-30      : 2
    faces with concavity > 80  degrees                     : 0
    faces with skewness > 4   (internal) or 20  (boundary) : 0
    faces with interpolation weights (0..1)  < 0.05        : 0
    faces with volume ratio of neighbour cells < 0.01      : 0
    faces with face twist < 0.05                           : 4
    faces on cells with determinant < 0.001                : 0

Iteration 2
Moving mesh using displacement scaling : min:0.5625  max:1
Checking faces in error :
    non-orthogonality > 65  degrees                        : 0
    faces with face pyramid volume < 1e-13                 : 0
    faces with face-decomposition tet quality < 1e-30      : 1
    faces with concavity > 80  degrees                     : 0
    faces with skewness > 4   (internal) or 20  (boundary) : 0
    faces with interpolation weights (0..1)  < 0.05        : 0
    faces with volume ratio of neighbour cells < 0.01      : 0
    faces with face twist < 0.05                           : 2
    faces on cells with determinant < 0.001                : 0

Iteration 3
Moving mesh using displacement scaling : min:0.421875  max:1
Checking faces in error :
    non-orthogonality > 65  degrees                        : 0
    faces with face pyramid volume < 1e-13                 : 0
    faces with face-decomposition tet quality < 1e-30      : 1
    faces with concavity > 80  degrees                     : 0
    faces with skewness > 4   (internal) or 20  (boundary) : 0
    faces with interpolation weights (0..1)  < 0.05        : 0
    faces with volume ratio of neighbour cells < 0.01      : 0
    faces with face twist < 0.05                           : 0
    faces on cells with determinant < 0.001                : 0

Iteration 4
Moving mesh using displacement scaling : min:0.31640625  max:1
Checking faces in error :
    non-orthogonality > 65  degrees                        : 0
    faces with face pyramid volume < 1e-13                 : 0
    faces with face-decomposition tet quality < 1e-30      : 0
    faces with concavity > 80  degrees                     : 0
    faces with skewness > 4   (internal) or 20  (boundary) : 0
    faces with interpolation weights (0..1)  < 0.05        : 0
    faces with volume ratio of neighbour cells < 0.01      : 0
    faces with face twist < 0.05                           : 3
    faces on cells with determinant < 0.001                : 0

Iteration 5
Displacement scaling for error reduction set to 0.
Moving mesh using displacement scaling : min:0.23730469  max:1
Checking faces in error :
    non-orthogonality > 65  degrees                        : 0
    faces with face pyramid volume < 1e-13                 : 0
    faces with face-decomposition tet quality < 1e-30      : 0
    faces with concavity > 80  degrees                     : 0
    faces with skewness > 4   (internal) or 20  (boundary) : 0
    faces with interpolation weights (0..1)  < 0.05        : 0
    faces with volume ratio of neighbour cells < 0.01      : 0
    faces with face twist < 0.05                           : 1
    faces on cells with determinant < 0.001                : 0

Iteration 6
Moving mesh using displacement scaling : min:0  max:1
Checking faces in error :
    non-orthogonality > 65  degrees                        : 0
    faces with face pyramid volume < 1e-13                 : 0
    faces with face-decomposition tet quality < 1e-30      : 1
    faces with concavity > 80  degrees                     : 0
    faces with skewness > 4   (internal) or 20  (boundary) : 0
    faces with interpolation weights (0..1)  < 0.05        : 0
    faces with volume ratio of neighbour cells < 0.01      : 0
    faces with face twist < 0.05                           : 2
    faces on cells with determinant < 0.001                : 0

Iteration 7
Moving mesh using displacement scaling : min:0  max:1
Checking faces in error :
    non-orthogonality > 65  degrees                        : 0
    faces with face pyramid volume < 1e-13                 : 0
    faces with face-decomposition tet quality < 1e-30      : 0
    faces with concavity > 80  degrees                     : 0
    faces with skewness > 4   (internal) or 20  (boundary) : 0
    faces with interpolation weights (0..1)  < 0.05        : 0
    faces with volume ratio of neighbour cells < 0.01      : 0
    faces with face twist < 0.05                           : 0
    faces on cells with determinant < 0.001                : 0
Successfully moved mesh
Moved mesh in = 0.26 s



Morph iteration 7
-----------------
Calculating patchDisplacement as distance to nearest surface point ...
    non-zone points : attract to nearest of all non-zone surfaces
    zone points     : attract to zone surface only

Wanted displacement : average:8.1163503e-05 min:4.3219512e-09 max:0.0020763567
Calculated surface displacement in = 0.01 s


Detecting near surfaces ...
Overriding nearest with intersection of close gaps at 0 out of 24472 points.
Overriding displacement on features :
   implicit features    : false
   explicit features    : true
   multi-patch features : false

Detected 2 baffle edges out of 47862 edges.
Baffle points     : 3 of which attracted to :
    feature point : 0
    feature edge  : 3
    rest          : 0

Initially selected 35 mesh points out of 24472 for reverse attraction.
Selected 119 mesh points out of 24472 for reverse attraction.
Stringing feature edges : changed 2 points
Stringing feature edges : changed 0 points
Attraction:
    linear   : max:(0.00043736934 0.0020135664 -0.00025595979) avg:(-1.3680892e-07 1.0586266e-07 -7.0364521e-09)
    feature  : max:(0.0072806846 -0.00076496922 -0.0017808961) avg:(7.8413301e-08 1.5554232e-07 1.4214353e-08)
Feature analysis : total master points :23535 of which attracted to :
    feature point   : 2
    feature edge    : 19
    nearest surface : 0
    rest            : 23514

--> FOAM Warning : Displacement (-8.4036171e-06 -2.7732718e-05 -2.7254335e-05) at mesh point 3445 coord (-0.46070943 -0.048168365 -0.048147199) points through the surrounding patch faces
Smoothing displacement ...
Iteration 0
Iteration 10
Iteration 20
Displacement smoothed in = 0.12 s


Moving mesh ...

Iteration 0
Moving mesh using displacement scaling : min:1  max:1
Checking faces in error :
    non-orthogonality > 65  degrees                        : 0
    faces with face pyramid volume < 1e-13                 : 0
    faces with face-decomposition tet quality < 1e-30      : 13
    faces with concavity > 80  degrees                     : 0
    faces with skewness > 4   (internal) or 20  (boundary) : 0
    faces with interpolation weights (0..1)  < 0.05        : 0
    faces with volume ratio of neighbour cells < 0.01      : 0
    faces with face twist < 0.05                           : 2
    faces on cells with determinant < 0.001                : 0

Iteration 1
Moving mesh using displacement scaling : min:0.75  max:1
Checking faces in error :
    non-orthogonality > 65  degrees                        : 0
    faces with face pyramid volume < 1e-13                 : 0
    faces with face-decomposition tet quality < 1e-30      : 8
    faces with concavity > 80  degrees                     : 0
    faces with skewness > 4   (internal) or 20  (boundary) : 0
    faces with interpolation weights (0..1)  < 0.05        : 0
    faces with volume ratio of neighbour cells < 0.01      : 0
    faces with face twist < 0.05                           : 3
    faces on cells with determinant < 0.001                : 0

Iteration 2
Moving mesh using displacement scaling : min:0.5625  max:1
Checking faces in error :
    non-orthogonality > 65  degrees                        : 0
    faces with face pyramid volume < 1e-13                 : 0
    faces with face-decomposition tet quality < 1e-30      : 7
    faces with concavity > 80  degrees                     : 0
    faces with skewness > 4   (internal) or 20  (boundary) : 0
    faces with interpolation weights (0..1)  < 0.05        : 0
    faces with volume ratio of neighbour cells < 0.01      : 0
    faces with face twist < 0.05                           : 4
    faces on cells with determinant < 0.001                : 0

Iteration 3
Moving mesh using displacement scaling : min:0.421875  max:1
Checking faces in error :
    non-orthogonality > 65  degrees                        : 0
    faces with face pyramid volume < 1e-13                 : 0
    faces with face-decomposition tet quality < 1e-30      : 3
    faces with concavity > 80  degrees                     : 0
    faces with skewness > 4   (internal) or 20  (boundary) : 0
    faces with interpolation weights (0..1)  < 0.05        : 0
    faces with volume ratio of neighbour cells < 0.01      : 0
    faces with face twist < 0.05                           : 3
    faces on cells with determinant < 0.001                : 0

Iteration 4
Moving mesh using displacement scaling : min:0.31640625  max:1
Checking faces in error :
    non-orthogonality > 65  degrees                        : 0
    faces with face pyramid volume < 1e-13                 : 0
    faces with face-decomposition tet quality < 1e-30      : 3
    faces with concavity > 80  degrees                     : 0
    faces with skewness > 4   (internal) or 20  (boundary) : 0
    faces with interpolation weights (0..1)  < 0.05        : 0
    faces with volume ratio of neighbour cells < 0.01      : 0
    faces with face twist < 0.05                           : 2
    faces on cells with determinant < 0.001                : 0

Iteration 5
Displacement scaling for error reduction set to 0.
Moving mesh using displacement scaling : min:0.23730469  max:1
Checking faces in error :
    non-orthogonality > 65  degrees                        : 0
    faces with face pyramid volume < 1e-13                 : 0
    faces with face-decomposition tet quality < 1e-30      : 0
    faces with concavity > 80  degrees                     : 0
    faces with skewness > 4   (internal) or 20  (boundary) : 0
    faces with interpolation weights (0..1)  < 0.05        : 0
    faces with volume ratio of neighbour cells < 0.01      : 0
    faces with face twist < 0.05                           : 4
    faces on cells with determinant < 0.001                : 0

Iteration 6
Moving mesh using displacement scaling : min:0  max:1
Checking faces in error :
    non-orthogonality > 65  degrees                        : 0
    faces with face pyramid volume < 1e-13                 : 0
    faces with face-decomposition tet quality < 1e-30      : 1
    faces with concavity > 80  degrees                     : 0
    faces with skewness > 4   (internal) or 20  (boundary) : 0
    faces with interpolation weights (0..1)  < 0.05        : 0
    faces with volume ratio of neighbour cells < 0.01      : 0
    faces with face twist < 0.05                           : 0
    faces on cells with determinant < 0.001                : 0

Iteration 7
Moving mesh using displacement scaling : min:0  max:1
Checking faces in error :
    non-orthogonality > 65  degrees                        : 0
    faces with face pyramid volume < 1e-13                 : 0
    faces with face-decomposition tet quality < 1e-30      : 0
    faces with concavity > 80  degrees                     : 0
    faces with skewness > 4   (internal) or 20  (boundary) : 0
    faces with interpolation weights (0..1)  < 0.05        : 0
    faces with volume ratio of neighbour cells < 0.01      : 0
    faces with face twist < 0.05                           : 0
    faces on cells with determinant < 0.001                : 0
Successfully moved mesh
Moved mesh in = 0.3 s



Morph iteration 8
-----------------
Calculating patchDisplacement as distance to nearest surface point ...
    non-zone points : attract to nearest of all non-zone surfaces
    zone points     : attract to zone surface only

Wanted displacement : average:2.8745481e-05 min:5.5729924e-10 max:0.0020763567
Calculated surface displacement in = 0.01 s


Detecting near surfaces ...
Overriding nearest with intersection of close gaps at 0 out of 24472 points.
Overriding displacement on features :
   implicit features    : false
   explicit features    : true
   multi-patch features : false

Detected 2 baffle edges out of 47862 edges.
Baffle points     : 3 of which attracted to :
    feature point : 0
    feature edge  : 3
    rest          : 0

Initially selected 37 mesh points out of 24472 for reverse attraction.
Selected 113 mesh points out of 24472 for reverse attraction.
Stringing feature edges : changed 3 points
Stringing feature edges : changed 0 points
Attraction:
    linear   : max:(0.00043736934 0.0020135664 -0.00025595979) avg:(9.1025929e-09 5.6019507e-08 -1.0996221e-08)
    feature  : max:(0.0072806846 -0.00076496922 -0.0017808961) avg:(9.8714162e-08 1.3862326e-07 -3.7436234e-09)
Feature analysis : total master points :23535 of which attracted to :
    feature point   : 2
    feature edge    : 20
    nearest surface : 0
    rest            : 23513

--> FOAM Warning : Displacement (-3.4644613e-06 -1.2611022e-05 -1.2409915e-05) at mesh point 3445 coord (-0.46071783 -0.048196098 -0.048174453) points through the surrounding patch faces
Smoothing displacement ...
Iteration 0
Iteration 10
Iteration 20
Displacement smoothed in = 0.11 s


Moving mesh ...

Iteration 0
Moving mesh using displacement scaling : min:1  max:1
Checking faces in error :
    non-orthogonality > 65  degrees                        : 0
    faces with face pyramid volume < 1e-13                 : 0
    faces with face-decomposition tet quality < 1e-30      : 18
    faces with concavity > 80  degrees                     : 0
    faces with skewness > 4   (internal) or 20  (boundary) : 0
    faces with interpolation weights (0..1)  < 0.05        : 0
    faces with volume ratio of neighbour cells < 0.01      : 0
    faces with face twist < 0.05                           : 3
    faces on cells with determinant < 0.001                : 0

Iteration 1
Moving mesh using displacement scaling : min:0.75  max:1
Checking faces in error :
    non-orthogonality > 65  degrees                        : 0
    faces with face pyramid volume < 1e-13                 : 0
    faces with face-decomposition tet quality < 1e-30      : 18
    faces with concavity > 80  degrees                     : 0
    faces with skewness > 4   (internal) or 20  (boundary) : 0
    faces with interpolation weights (0..1)  < 0.05        : 0
    faces with volume ratio of neighbour cells < 0.01      : 0
    faces with face twist < 0.05                           : 0
    faces on cells with determinant < 0.001                : 0

Iteration 2
Moving mesh using displacement scaling : min:0.5625  max:1
Checking faces in error :
    non-orthogonality > 65  degrees                        : 0
    faces with face pyramid volume < 1e-13                 : 0
    faces with face-decomposition tet quality < 1e-30      : 16
    faces with concavity > 80  degrees                     : 0
    faces with skewness > 4   (internal) or 20  (boundary) : 0
    faces with interpolation weights (0..1)  < 0.05        : 0
    faces with volume ratio of neighbour cells < 0.01      : 0
    faces with face twist < 0.05                           : 5
    faces on cells with determinant < 0.001                : 0

Iteration 3
Moving mesh using displacement scaling : min:0.421875  max:1
Checking faces in error :
    non-orthogonality > 65  degrees                        : 0
    faces with face pyramid volume < 1e-13                 : 0
    faces with face-decomposition tet quality < 1e-30      : 15
    faces with concavity > 80  degrees                     : 0
    faces with skewness > 4   (internal) or 20  (boundary) : 0
    faces with interpolation weights (0..1)  < 0.05        : 0
    faces with volume ratio of neighbour cells < 0.01      : 0
    faces with face twist < 0.05                           : 4
    faces on cells with determinant < 0.001                : 0

Iteration 4
Moving mesh using displacement scaling : min:0.31640625  max:1
Checking faces in error :
    non-orthogonality > 65  degrees                        : 0
    faces with face pyramid volume < 1e-13                 : 0
    faces with face-decomposition tet quality < 1e-30      : 11
    faces with concavity > 80  degrees                     : 0
    faces with skewness > 4   (internal) or 20  (boundary) : 0
    faces with interpolation weights (0..1)  < 0.05        : 0
    faces with volume ratio of neighbour cells < 0.01      : 0
    faces with face twist < 0.05                           : 4
    faces on cells with determinant < 0.001                : 0

Iteration 5
Displacement scaling for error reduction set to 0.
Moving mesh using displacement scaling : min:0.23730469  max:1
Checking faces in error :
    non-orthogonality > 65  degrees                        : 0
    faces with face pyramid volume < 1e-13                 : 0
    faces with face-decomposition tet quality < 1e-30      : 7
    faces with concavity > 80  degrees                     : 0
    faces with skewness > 4   (internal) or 20  (boundary) : 0
    faces with interpolation weights (0..1)  < 0.05        : 0
    faces with volume ratio of neighbour cells < 0.01      : 0
    faces with face twist < 0.05                           : 2
    faces on cells with determinant < 0.001                : 0

Iteration 6
Moving mesh using displacement scaling : min:0  max:1
Checking faces in error :
    non-orthogonality > 65  degrees                        : 0
    faces with face pyramid volume < 1e-13                 : 0
    faces with face-decomposition tet quality < 1e-30      : 0
    faces with concavity > 80  degrees                     : 0
    faces with skewness > 4   (internal) or 20  (boundary) : 0
    faces with interpolation weights (0..1)  < 0.05        : 0
    faces with volume ratio of neighbour cells < 0.01      : 0
    faces with face twist < 0.05                           : 4
    faces on cells with determinant < 0.001                : 0

Iteration 7
Moving mesh using displacement scaling : min:0  max:1
Checking faces in error :
    non-orthogonality > 65  degrees                        : 0
    faces with face pyramid volume < 1e-13                 : 0
    faces with face-decomposition tet quality < 1e-30      : 0
    faces with concavity > 80  degrees                     : 0
    faces with skewness > 4   (internal) or 20  (boundary) : 0
    faces with interpolation weights (0..1)  < 0.05        : 0
    faces with volume ratio of neighbour cells < 0.01      : 0
    faces with face twist < 0.05                           : 0
    faces on cells with determinant < 0.001                : 0
Successfully moved mesh
Moved mesh in = 0.3 s



Morph iteration 9
-----------------
Calculating patchDisplacement as distance to nearest surface point ...
    non-zone points : attract to nearest of all non-zone surfaces
    zone points     : attract to zone surface only

Wanted displacement : average:5.7602268e-06 min:5.8339778e-10 max:0.0020763567
Calculated surface displacement in = 0 s


Detecting near surfaces ...
Overriding nearest with intersection of close gaps at 0 out of 24472 points.
Overriding displacement on features :
   implicit features    : false
   explicit features    : true
   multi-patch features : false

Detected 2 baffle edges out of 47862 edges.
Baffle points     : 3 of which attracted to :
    feature point : 0
    feature edge  : 3
    rest          : 0

Initially selected 38 mesh points out of 24472 for reverse attraction.
Selected 113 mesh points out of 24472 for reverse attraction.
Stringing feature edges : changed 1 points
Stringing feature edges : changed 0 points
Attraction:
    linear   : max:(0.00043736934 0.0020135664 -0.00025595979) avg:(4.5296219e-08 3.7131453e-08 -1.0525974e-08)
    feature  : max:(0.0072806846 -0.00076496922 -0.0017808961) avg:(8.8186028e-08 1.1128162e-07 2.655064e-08)
Feature analysis : total master points :23535 of which attracted to :
    feature point   : 2
    feature edge    : 20
    nearest surface : 0
    rest            : 23513

--> FOAM Warning : Displacement (-7.6518066e-07 -2.8172483e-06 -2.8889334e-06) at mesh point 3445 coord (-0.4607213 -0.048208709 -0.048186863) points through the surrounding patch faces
Smoothing displacement ...
Iteration 0
Iteration 10
Iteration 20
Displacement smoothed in = 0.09 s


Moving mesh ...

Iteration 0
Moving mesh using displacement scaling : min:1  max:1
Checking faces in error :
    non-orthogonality > 65  degrees                        : 1
    faces with face pyramid volume < 1e-13                 : 1
    faces with face-decomposition tet quality < 1e-30      : 19
    faces with concavity > 80  degrees                     : 0
    faces with skewness > 4   (internal) or 20  (boundary) : 0
    faces with interpolation weights (0..1)  < 0.05        : 0
    faces with volume ratio of neighbour cells < 0.01      : 0
    faces with face twist < 0.05                           : 4
    faces on cells with determinant < 0.001                : 0

Iteration 1
Moving mesh using displacement scaling : min:0.75  max:1
Checking faces in error :
    non-orthogonality > 65  degrees                        : 1
    faces with face pyramid volume < 1e-13                 : 0
    faces with face-decomposition tet quality < 1e-30      : 18
    faces with concavity > 80  degrees                     : 0
    faces with skewness > 4   (internal) or 20  (boundary) : 0
    faces with interpolation weights (0..1)  < 0.05        : 0
    faces with volume ratio of neighbour cells < 0.01      : 0
    faces with face twist < 0.05                           : 4
    faces on cells with determinant < 0.001                : 0

Iteration 2
Moving mesh using displacement scaling : min:0.5625  max:1
Checking faces in error :
    non-orthogonality > 65  degrees                        : 0
    faces with face pyramid volume < 1e-13                 : 0
    faces with face-decomposition tet quality < 1e-30      : 17
    faces with concavity > 80  degrees                     : 0
    faces with skewness > 4   (internal) or 20  (boundary) : 0
    faces with interpolation weights (0..1)  < 0.05        : 0
    faces with volume ratio of neighbour cells < 0.01      : 0
    faces with face twist < 0.05                           : 3
    faces on cells with determinant < 0.001                : 0

Iteration 3
Moving mesh using displacement scaling : min:0.421875  max:1
Checking faces in error :
    non-orthogonality > 65  degrees                        : 0
    faces with face pyramid volume < 1e-13                 : 0
    faces with face-decomposition tet quality < 1e-30      : 15
    faces with concavity > 80  degrees                     : 0
    faces with skewness > 4   (internal) or 20  (boundary) : 0
    faces with interpolation weights (0..1)  < 0.05        : 0
    faces with volume ratio of neighbour cells < 0.01      : 0
    faces with face twist < 0.05                           : 2
    faces on cells with determinant < 0.001                : 0

Iteration 4
Moving mesh using displacement scaling : min:0.31640625  max:1
Checking faces in error :
    non-orthogonality > 65  degrees                        : 0
    faces with face pyramid volume < 1e-13                 : 0
    faces with face-decomposition tet quality < 1e-30      : 13
    faces with concavity > 80  degrees                     : 0
    faces with skewness > 4   (internal) or 20  (boundary) : 0
    faces with interpolation weights (0..1)  < 0.05        : 0
    faces with volume ratio of neighbour cells < 0.01      : 0
    faces with face twist < 0.05                           : 4
    faces on cells with determinant < 0.001                : 0

Iteration 5
Displacement scaling for error reduction set to 0.
Moving mesh using displacement scaling : min:0.23730469  max:1
Checking faces in error :
    non-orthogonality > 65  degrees                        : 0
    faces with face pyramid volume < 1e-13                 : 0
    faces with face-decomposition tet quality < 1e-30      : 13
    faces with concavity > 80  degrees                     : 0
    faces with skewness > 4   (internal) or 20  (boundary) : 0
    faces with interpolation weights (0..1)  < 0.05        : 0
    faces with volume ratio of neighbour cells < 0.01      : 0
    faces with face twist < 0.05                           : 4
    faces on cells with determinant < 0.001                : 0

Iteration 6
Moving mesh using displacement scaling : min:0  max:1
Checking faces in error :
    non-orthogonality > 65  degrees                        : 0
    faces with face pyramid volume < 1e-13                 : 0
    faces with face-decomposition tet quality < 1e-30      : 0
    faces with concavity > 80  degrees                     : 0
    faces with skewness > 4   (internal) or 20  (boundary) : 0
    faces with interpolation weights (0..1)  < 0.05        : 0
    faces with volume ratio of neighbour cells < 0.01      : 0
    faces with face twist < 0.05                           : 0
    faces on cells with determinant < 0.001                : 0
Successfully moved mesh
Moved mesh in = 0.26 s


Repatching faces according to nearest surface ...
Repatched 0 faces in = 0.02 s


Edge intersection testing:
    Number of edges             : 448250
    Number of edges to retest   : 130038
    Number of intersected edges : 23399
Merging 6335 sets of faces.

[...]
Merging 33 sets of faces.

Edge intersection testing:
    Number of edges             : 440298
    Number of edges to retest   : 238
    Number of intersected edges : 15447

Undo iteration 0
----------------
Checking faces in error :
    non-orthogonality > 65  degrees                        : 0
    faces with face pyramid volume < 1e-13                 : 0
    faces with face-decomposition tet quality < 1e-30      : 4
    faces with concavity > 80  degrees                     : 0
    faces with skewness > 4   (internal) or 20  (boundary) : 0
    faces with interpolation weights (0..1)  < 0.05        : 0
    faces with volume ratio of neighbour cells < 0.01      : 0
    faces with face twist < 0.05                           : 0
    faces on cells with determinant < 0.001                : 0
Masters that need to be restored:8
Edge intersection testing:
    Number of edges             : 440310
    Number of edges to retest   : 52
    Number of intersected edges : 15459


Undo iteration 1
----------------
Checking faces in error :
    non-orthogonality > 65  degrees                        : 0
    faces with face pyramid volume < 1e-13                 : 0
    faces with face-decomposition tet quality < 1e-30      : 0
    faces with concavity > 80  degrees                     : 0
    faces with skewness > 4   (internal) or 20  (boundary) : 0
    faces with interpolation weights (0..1)  < 0.05        : 0
    faces with volume ratio of neighbour cells < 0.01      : 0
    faces with face twist < 0.05                           : 0
    faces on cells with determinant < 0.001                : 0

Merging all points on surface that
- are used by only two boundary faces and
- make an angle with a cosine of more than 0.5.

Removing 42 straight edge points ...

Edge intersection testing:
    Number of edges             : 440310
    Number of edges to retest   : 370
    Number of intersected edges : 15459

Undo iteration 0
----------------
Checking faces in error :
    non-orthogonality > 65  degrees                        : 0
    faces with face pyramid volume < 1e-13                 : 0
    faces with face-decomposition tet quality < 1e-30      : 0
    faces with concavity > 80  degrees                     : 0
    faces with skewness > 4   (internal) or 20  (boundary) : 0
    faces with interpolation weights (0..1)  < 0.05        : 0
    faces with volume ratio of neighbour cells < 0.01      : 0
    faces with face twist < 0.05                           : 0
    faces on cells with determinant < 0.001                : 0

Checking mesh manifoldness ...
Outside of mesh is multiply connected across edges or points.
This is not a fatal error but might cause some unexpected behaviour.


Checking initial mesh ...
Checking faces in error :
    non-orthogonality > 65  degrees                        : 0
    faces with face pyramid volume < 1e-13                 : 0
    faces with face-decomposition tet quality < 1e-30      : 0
    faces with concavity > 80  degrees                     : 0
    faces with skewness > 4   (internal) or 20  (boundary) : 0
    faces with interpolation weights (0..1)  < 0.05        : 0
    faces with volume ratio of neighbour cells < 0.01      : 0
    faces with face twist < 0.05                           : 0
    faces on cells with determinant < 0.001                : 0
Detected 0 illegal faces (concave, zero area or negative cell pyramid volume)

Doing initial balancing
-----------------------

Found 0 zoned faces to keep together.
Found 0 separated coupled faces to keep together.
Duplicating 0 points on faceZones of type boundary

Handling points with inconsistent layer specification ...
dupNonManifoldPoints : Found : 0 non-manifold points (out of 177004)

Adding in total 0 inter-processor patches to handle extrusion of non-manifold processor boundaries.

Handling points with inconsistent layer specification ...

Handling non-manifold points ...

Checking patch manifoldness ...
Outside of local patch is multiply connected across edges or points at 0 points.
Set displacement to zero for all 0 non-manifold points

Handling feature edges (angle < 60) ...
Set displacement to zero for points on 16 feature edges

Handling cells with warped patch faces ...
Set displacement to zero on 2 warped faces since layer would be > 0.5 of the size of the bounding box.

patch   faces    layers avg thickness[m]
                        near-wall overall
-----   -----    ------ --------- -------
airfoil 15458    2      0.00292   0.0067  

Selecting externalDisplacementMeshMover displacementMedialAxis
displacementMedialAxis : Calculating distance to Medial Axis ...
fieldSmoother : Smoothing normals ...
    Iteration 0   residual 0.007889962
displacementMedialAxis : Inserting points on patch inlet if angle to nearest layer patch > 30 degrees.
displacementMedialAxis : Inserting points on patch walls if angle to nearest layer patch > 30 degrees.
displacementMedialAxis : Inserting points on patch outlet if angle to nearest layer patch > 30 degrees.
fieldSmoother : Smoothing normals in interior ...
    Iteration 0   residual 0.037863098

Layer addition iteration 0
--------------------------

Determining displacement for added points according to pointNormal ...
Detected 0 points with point normal pointing through faces.
Reset displacement at 0 points to average of surrounding points.

displacementMedialAxis : Smoothing using Medial Axis ...
displacementMedialAxis : Reducing layer thickness at 0 nodes where thickness to medial axis distance is large 
displacementMedialAxis : Removing isolated regions ...
- if partially extruded faces make angle < 30
- if exclusively surrounded by non-extruded faces
displacementMedialAxis : Number of isolated points extrusion stopped : 76
fieldSmoother : Smoothing field ...
    Iteration 0   residual 3.8704789e-06
displacementMedialAxis : Moving mesh ...
displacementMedialAxis : Iteration 0
Moving mesh using displacement scaling : min:1  max:1
Checking faces in error :
    non-orthogonality > 65  degrees                        : 0
    faces with face pyramid volume < 1e-13                 : 0
    faces with face-decomposition tet quality < 1e-30      : 6
    faces with concavity > 80  degrees                     : 0
    faces with skewness > 4   (internal) or 20  (boundary) : 0
    faces with interpolation weights (0..1)  < 0.05        : 0
    faces with volume ratio of neighbour cells < 0.01      : 0
    faces with face twist < 0.05                           : 0
    faces on cells with determinant < 0.001                : 0
displacementMedialAxis : Iteration 1
Moving mesh using displacement scaling : min:0.75  max:1
Checking faces in error :
    non-orthogonality > 65  degrees                        : 0
    faces with face pyramid volume < 1e-13                 : 0
    faces with face-decomposition tet quality < 1e-30      : 4
    faces with concavity > 80  degrees                     : 0
    faces with skewness > 4   (internal) or 20  (boundary) : 0
    faces with interpolation weights (0..1)  < 0.05        : 0
    faces with volume ratio of neighbour cells < 0.01      : 0
    faces with face twist < 0.05                           : 0
    faces on cells with determinant < 0.001                : 0
displacementMedialAxis : Iteration 2
Moving mesh using displacement scaling : min:0.5625  max:1
Checking faces in error :
    non-orthogonality > 65  degrees                        : 0
    faces with face pyramid volume < 1e-13                 : 0
    faces with face-decomposition tet quality < 1e-30      : 2
    faces with concavity > 80  degrees                     : 0
    faces with skewness > 4   (internal) or 20  (boundary) : 0
    faces with interpolation weights (0..1)  < 0.05        : 0
    faces with volume ratio of neighbour cells < 0.01      : 0
    faces with face twist < 0.05                           : 0
    faces on cells with determinant < 0.001                : 0
displacementMedialAxis : Iteration 3
Moving mesh using displacement scaling : min:0.421875  max:1
Checking faces in error :
    non-orthogonality > 65  degrees                        : 0
    faces with face pyramid volume < 1e-13                 : 0
    faces with face-decomposition tet quality < 1e-30      : 4
    faces with concavity > 80  degrees                     : 0
    faces with skewness > 4   (internal) or 20  (boundary) : 0
    faces with interpolation weights (0..1)  < 0.05        : 0
    faces with volume ratio of neighbour cells < 0.01      : 0
    faces with face twist < 0.05                           : 0
    faces on cells with determinant < 0.001                : 0
displacementMedialAxis : Iteration 4
Moving mesh using displacement scaling : min:0.31640625  max:1
Checking faces in error :
    non-orthogonality > 65  degrees                        : 0
    faces with face pyramid volume < 1e-13                 : 0
    faces with face-decomposition tet quality < 1e-30      : 4
    faces with concavity > 80  degrees                     : 0
    faces with skewness > 4   (internal) or 20  (boundary) : 0
    faces with interpolation weights (0..1)  < 0.05        : 0
    faces with volume ratio of neighbour cells < 0.01      : 0
    faces with face twist < 0.05                           : 0
    faces on cells with determinant < 0.001                : 0
displacementMedialAxis : Iteration 5
displacementMedialAxis : Displacement scaling for error reduction set to 0.
Moving mesh using displacement scaling : min:0.23730469  max:1
Checking faces in error :
    non-orthogonality > 65  degrees                        : 0
    faces with face pyramid volume < 1e-13                 : 0
    faces with face-decomposition tet quality < 1e-30      : 4
    faces with concavity > 80  degrees                     : 0
    faces with skewness > 4   (internal) or 20  (boundary) : 0
    faces with interpolation weights (0..1)  < 0.05        : 0
    faces with volume ratio of neighbour cells < 0.01      : 0
    faces with face twist < 0.05                           : 0
    faces on cells with determinant < 0.001                : 0
displacementMedialAxis : Iteration 6
Moving mesh using displacement scaling : min:0  max:1
Checking faces in error :
    non-orthogonality > 65  degrees                        : 0
    faces with face pyramid volume < 1e-13                 : 0
    faces with face-decomposition tet quality < 1e-30      : 0
    faces with concavity > 80  degrees                     : 0
    faces with skewness > 4   (internal) or 20  (boundary) : 0
    faces with interpolation weights (0..1)  < 0.05        : 0
    faces with volume ratio of neighbour cells < 0.01      : 0
    faces with face twist < 0.05                           : 0
    faces on cells with determinant < 0.001                : 0
displacementMedialAxis : Successfully moved mesh
displacementMedialAxis : Finished moving mesh ...
truncateDisplacement : Unextruded 0 faces due to non-consecutive vertices being extruded.
truncateDisplacement : Unextruded 0 faces due to stringed edges with inconsistent extrusion.

Setting up information for layer truncation ...
Detected 0 baffles across faceZones of type internal


Checking mesh with layer ...
Checking faces in error :
    non-orthogonality > 65  degrees                        : 0
    faces with face pyramid volume < 1e-13                 : 0
    faces with face-decomposition tet quality < 1e-30      : 4
    faces with concavity > 80  degrees                     : 0
    faces with skewness > 4   (internal) or 20  (boundary) : 0
    faces with interpolation weights (0..1)  < 0.05        : 0
    faces with volume ratio of neighbour cells < 0.01      : 0
    faces with face twist < 0.05                           : 0
    faces on cells with determinant < 0.001                : 0
Detected 4 illegal faces (concave, zero area or negative cell pyramid volume)
Extruding 15392 out of 15458 faces (99.573037%). Removed extrusion at 4 faces.
Added 30751 out of 30916 cells (99.466296%).


Layer addition iteration 1
--------------------------

Determining displacement for added points according to pointNormal ...
Detected 0 points with point normal pointing through faces.
Reset displacement at 0 points to average of surrounding points.

displacementMedialAxis : Smoothing using Medial Axis ...
displacementMedialAxis : Reducing layer thickness at 0 nodes where thickness to medial axis distance is large 
displacementMedialAxis : Removing isolated regions ...
- if partially extruded faces make angle < 30
- if exclusively surrounded by non-extruded faces
displacementMedialAxis : Number of isolated points extrusion stopped : 1
fieldSmoother : Smoothing field ...
    Iteration 0   residual 3.9719545e-06
displacementMedialAxis : Moving mesh ...
displacementMedialAxis : Iteration 0
Moving mesh using displacement scaling : min:1  max:1
Checking faces in error :
    non-orthogonality > 65  degrees                        : 0
    faces with face pyramid volume < 1e-13                 : 0
    faces with face-decomposition tet quality < 1e-30      : 2
    faces with concavity > 80  degrees                     : 0
    faces with skewness > 4   (internal) or 20  (boundary) : 0
    faces with interpolation weights (0..1)  < 0.05        : 0
    faces with volume ratio of neighbour cells < 0.01      : 0
    faces with face twist < 0.05                           : 0
    faces on cells with determinant < 0.001                : 0
displacementMedialAxis : Iteration 1
Moving mesh using displacement scaling : min:0.75  max:1
Checking faces in error :
    non-orthogonality > 65  degrees                        : 0
    faces with face pyramid volume < 1e-13                 : 0
    faces with face-decomposition tet quality < 1e-30      : 0
    faces with concavity > 80  degrees                     : 0
    faces with skewness > 4   (internal) or 20  (boundary) : 0
    faces with interpolation weights (0..1)  < 0.05        : 0
    faces with volume ratio of neighbour cells < 0.01      : 0
    faces with face twist < 0.05                           : 0
    faces on cells with determinant < 0.001                : 0
displacementMedialAxis : Successfully moved mesh
displacementMedialAxis : Finished moving mesh ...
truncateDisplacement : Unextruded 0 faces due to non-consecutive vertices being extruded.
truncateDisplacement : Unextruded 0 faces due to stringed edges with inconsistent extrusion.

Setting up information for layer truncation ...
Detected 0 baffles across faceZones of type internal


Checking mesh with layer ...
Checking faces in error :
    non-orthogonality > 65  degrees                        : 0
    faces with face pyramid volume < 1e-13                 : 0
    faces with face-decomposition tet quality < 1e-30      : 4
    faces with concavity > 80  degrees                     : 0
    faces with skewness > 4   (internal) or 20  (boundary) : 0
    faces with interpolation weights (0..1)  < 0.05        : 0
    faces with volume ratio of neighbour cells < 0.01      : 0
    faces with face twist < 0.05                           : 0
    faces on cells with determinant < 0.001                : 0
Detected 4 illegal faces (concave, zero area or negative cell pyramid volume)
Extruding 15386 out of 15458 faces (99.534222%). Removed extrusion at 4 faces.
Added 30739 out of 30916 cells (99.427481%).


Layer addition iteration 2
--------------------------

Determining displacement for added points according to pointNormal ...
Detected 0 points with point normal pointing through faces.
Reset displacement at 0 points to average of surrounding points.

displacementMedialAxis : Smoothing using Medial Axis ...
displacementMedialAxis : Reducing layer thickness at 0 nodes where thickness to medial axis distance is large 
displacementMedialAxis : Removing isolated regions ...
- if partially extruded faces make angle < 30
- if exclusively surrounded by non-extruded faces
displacementMedialAxis : Number of isolated points extrusion stopped : 2
fieldSmoother : Smoothing field ...
    Iteration 0   residual 3.9593137e-06
displacementMedialAxis : Moving mesh ...
displacementMedialAxis : Iteration 0
Moving mesh using displacement scaling : min:1  max:1
Checking faces in error :
    non-orthogonality > 65  degrees                        : 0
    faces with face pyramid volume < 1e-13                 : 0
    faces with face-decomposition tet quality < 1e-30      : 2
    faces with concavity > 80  degrees                     : 0
    faces with skewness > 4   (internal) or 20  (boundary) : 0
    faces with interpolation weights (0..1)  < 0.05        : 0
    faces with volume ratio of neighbour cells < 0.01      : 0
    faces with face twist < 0.05                           : 0
    faces on cells with determinant < 0.001                : 0
displacementMedialAxis : Iteration 1
Moving mesh using displacement scaling : min:0.75  max:1
Checking faces in error :
    non-orthogonality > 65  degrees                        : 0
    faces with face pyramid volume < 1e-13                 : 0
    faces with face-decomposition tet quality < 1e-30      : 0
    faces with concavity > 80  degrees                     : 0
    faces with skewness > 4   (internal) or 20  (boundary) : 0
    faces with interpolation weights (0..1)  < 0.05        : 0
    faces with volume ratio of neighbour cells < 0.01      : 0
    faces with face twist < 0.05                           : 0
    faces on cells with determinant < 0.001                : 0
displacementMedialAxis : Successfully moved mesh
displacementMedialAxis : Finished moving mesh ...
truncateDisplacement : Unextruded 0 faces due to non-consecutive vertices being extruded.
truncateDisplacement : Unextruded 0 faces due to stringed edges with inconsistent extrusion.

Setting up information for layer truncation ...
Detected 0 baffles across faceZones of type internal


Checking mesh with layer ...
Checking faces in error :
    non-orthogonality > 65  degrees                        : 0
    faces with face pyramid volume < 1e-13                 : 0
    faces with face-decomposition tet quality < 1e-30      : 0
    faces with concavity > 80  degrees                     : 0
    faces with skewness > 4   (internal) or 20  (boundary) : 0
    faces with interpolation weights (0..1)  < 0.05        : 0
    faces with volume ratio of neighbour cells < 0.01      : 0
    faces with face twist < 0.05                           : 0
    faces on cells with determinant < 0.001                : 0
Detected 0 illegal faces (concave, zero area or negative cell pyramid volume)
Extruding 15382 out of 15458 faces (99.508345%). Removed extrusion at 0 faces.
Added 30724 out of 30916 cells (99.378962%).
Edge intersection testing:
    Number of edges             : 536194
    Number of edges to retest   : 0
    Number of intersected edges : 46183

patch   faces    layers   overall thickness
                          [m]       [%]
-----   -----    ------   ---       ---
airfoil 15458    1.99     0.00682   98.7    


Doing final balancing
---------------------

Layer mesh : cells:168572  faces:536194  points:201096
Cells per refinement level:
    0	753
    1	3240
    2	5396
    3	10726
    4	24122
    5	96850
    6	12627
    7	14858
Writing mesh to time constant
Wrote mesh in = 2.05 s.
Layers added in = 2.05 s.
Checking final mesh ...
Checking faces in error :
    non-orthogonality > 65  degrees                        : 0
    faces with face pyramid volume < 1e-13                 : 0
    faces with face-decomposition tet quality < 1e-30      : 0
    faces with concavity > 80  degrees                     : 0
    faces with skewness > 4   (internal) or 20  (boundary) : 0
    faces with interpolation weights (0..1)  < 0.05        : 0
    faces with volume ratio of neighbour cells < 0.01      : 0
    faces with face twist < 0.05                           : 0
    faces on cells with determinant < 0.001                : 0
Finished meshing without any errors
Finished meshing in = 11.07 s.
End

Finalising parallel run
