/*---------------------------------------------------------------------------*\
| =========                 |                                                 |
| \\      /  F ield         | OpenFOAM: The Open Source CFD Toolbox           |
|  \\    /   O peration     | Version:  2112                                  |
|   \\  /    A nd           | Website:  www.openfoam.com                      |
|    \\/     M anipulation  |                                                 |
\*---------------------------------------------------------------------------*/
Build  : _d44c8318-20220111 OPENFOAM=2112 version=2112
Arch   : "LSB;label=32;scalar=64"
Exec   : surfaceFeatureExtract
Date   : Jul 04 2022
Time   : 23:32:04
Host   : 13639cff52bc
PID    : 483
I/O    : uncollated
Case   : /home/aimed_user/dexof_work/dir_rough_mesh_8cores_swordfish1_aoa_0
nProcs : 1
trapFpe: Floating point exception trapping enabled (FOAM_SIGFPE).
fileModificationChecking : Monitoring run-time modified files using timeStampMaster (fileModificationSkew 5, maxFileModificationPolls 20)
allowSystemOperations : Allowing user-supplied system call operations

// * * * * * * * * * * * * * * * * * * * * * * * * * * * * * * * * * * * * * //
Create time


Note: Feature line extraction only valid on closed manifold surfaces

Reading surfaceFeatureExtractDict

Surfaces     : UUV.stl
Output       : UUV
Load options : offset
Write options: writeObj=yes writeVTK=off

Statistics:
Triangles    : 40090 in 1 region(s)
Vertices     : 20047
Bounding Box : (-0.65549397 -0.0955 -0.095469996) (0.67450601 0.0955 0.095469996)

Constructing feature set from included angle 150
Selecting edges based purely on geometric tests: no

Initial Feature set:
    points : 4
    edges  : 81
    of which
        region edges   : 0
        external edges : 45
        internal edges : 36

Final Feature set:
    points : 85
    of which
        convex             : 0
        concave            : 0
        mixed              : 4
        non-feature        : 81
    edges  : 81
    of which
        external edges     : 45
        internal edges     : 36
        flat edges         : 0
        open edges         : 0
        multiply connected : 0

Writing extendedFeatureEdgeMesh to "/home/aimed_user/dexof_work/dir_rough_mesh_8cores_swordfish1_aoa_0/constant/extendedFeatureEdgeMesh/UUV.extendedFeatureEdgeMesh"

Writing extendedEdgeMesh components to "/home/aimed_user/dexof_work/dir_rough_mesh_8cores_swordfish1_aoa_0/constant/extendedFeatureEdgeMesh/UUV"
Writing 0 convex feature points to "/home/aimed_user/dexof_work/dir_rough_mesh_8cores_swordfish1_aoa_0/constant/extendedFeatureEdgeMesh/UUV_convexFeaturePts.obj"
Writing 0 concave feature points to "/home/aimed_user/dexof_work/dir_rough_mesh_8cores_swordfish1_aoa_0/constant/extendedFeatureEdgeMesh/UUV_concaveFeaturePts.obj"
Writing 4 mixed feature points to "/home/aimed_user/dexof_work/dir_rough_mesh_8cores_swordfish1_aoa_0/constant/extendedFeatureEdgeMesh/UUV_mixedFeaturePts.obj"
Writing 4 mixed feature point structure to "/home/aimed_user/dexof_work/dir_rough_mesh_8cores_swordfish1_aoa_0/constant/extendedFeatureEdgeMesh/UUV_mixedFeaturePtsStructure.obj"
Writing 45 external edges to "/home/aimed_user/dexof_work/dir_rough_mesh_8cores_swordfish1_aoa_0/constant/extendedFeatureEdgeMesh/UUV_externalEdges.obj"
Writing 36 internal edges to "/home/aimed_user/dexof_work/dir_rough_mesh_8cores_swordfish1_aoa_0/constant/extendedFeatureEdgeMesh/UUV_internalEdges.obj"
Writing 0 flat edges to "/home/aimed_user/dexof_work/dir_rough_mesh_8cores_swordfish1_aoa_0/constant/extendedFeatureEdgeMesh/UUV_flatEdges.obj"
Writing 0 open edges to "/home/aimed_user/dexof_work/dir_rough_mesh_8cores_swordfish1_aoa_0/constant/extendedFeatureEdgeMesh/UUV_openEdges.obj"
Writing 0 multiple edges to "/home/aimed_user/dexof_work/dir_rough_mesh_8cores_swordfish1_aoa_0/constant/extendedFeatureEdgeMesh/UUV_multipleEdges.obj"
Writing 0 region edges to "/home/aimed_user/dexof_work/dir_rough_mesh_8cores_swordfish1_aoa_0/constant/extendedFeatureEdgeMesh/UUV_regionEdges.obj"
Writing 81 edge directions to "/home/aimed_user/dexof_work/dir_rough_mesh_8cores_swordfish1_aoa_0/constant/extendedFeatureEdgeMesh/UUV_edgeDirections.obj"

Writing featureEdgeMesh to "/home/aimed_user/dexof_work/dir_rough_mesh_8cores_swordfish1_aoa_0/constant/triSurface/UUV.eMesh"
ExecutionTime = 0.13 s  ClockTime = 0 s

End

